# Generated by pormake.
# Topology gar, (4,6)-cn, num edge types: 1
# Building blocks:
#     Node 0, Type 0, BuildingBlock: TATPOV_clean_sbu_0, # of connection points: 4
#     Node 1, Type 0, BuildingBlock: TATPOV_clean_sbu_0, # of connection points: 4
#     Node 2, Type 0, BuildingBlock: TATPOV_clean_sbu_0, # of connection points: 4
#     Node 3, Type 0, BuildingBlock: TATPOV_clean_sbu_0, # of connection points: 4
#     Node 4, Type 0, BuildingBlock: TATPOV_clean_sbu_0, # of connection points: 4
#     Node 5, Type 0, BuildingBlock: TATPOV_clean_sbu_0, # of connection points: 4
#     Node 6, Type 0, BuildingBlock: TATPOV_clean_sbu_0, # of connection points: 4
#     Node 7, Type 0, BuildingBlock: TATPOV_clean_sbu_0, # of connection points: 4
#     Node 8, Type 0, BuildingBlock: TATPOV_clean_sbu_0, # of connection points: 4
#     Node 9, Type 0, BuildingBlock: TATPOV_clean_sbu_0, # of connection points: 4
#     Node 10, Type 0, BuildingBlock: TATPOV_clean_sbu_0, # of connection points: 4
#     Node 11, Type 0, BuildingBlock: TATPOV_clean_sbu_0, # of connection points: 4
#     Node 12, Type 0, BuildingBlock: TATPOV_clean_sbu_0, # of connection points: 4
#     Node 13, Type 0, BuildingBlock: TATPOV_clean_sbu_0, # of connection points: 4
#     Node 14, Type 0, BuildingBlock: TATPOV_clean_sbu_0, # of connection points: 4
#     Node 15, Type 0, BuildingBlock: TATPOV_clean_sbu_0, # of connection points: 4
#     Node 16, Type 0, BuildingBlock: TATPOV_clean_sbu_0, # of connection points: 4
#     Node 17, Type 0, BuildingBlock: TATPOV_clean_sbu_0, # of connection points: 4
#     Node 18, Type 0, BuildingBlock: TATPOV_clean_sbu_0, # of connection points: 4
#     Node 19, Type 0, BuildingBlock: TATPOV_clean_sbu_0, # of connection points: 4
#     Node 20, Type 0, BuildingBlock: TATPOV_clean_sbu_0, # of connection points: 4
#     Node 21, Type 0, BuildingBlock: TATPOV_clean_sbu_0, # of connection points: 4
#     Node 22, Type 0, BuildingBlock: TATPOV_clean_sbu_0, # of connection points: 4
#     Node 23, Type 0, BuildingBlock: TATPOV_clean_sbu_0, # of connection points: 4
#     Node 24, Type 1, BuildingBlock: NUHQIS_clean_sbu_0, # of connection points: 6
#     Node 25, Type 1, BuildingBlock: NUHQIS_clean_sbu_0, # of connection points: 6
#     Node 26, Type 1, BuildingBlock: NUHQIS_clean_sbu_0, # of connection points: 6
#     Node 27, Type 1, BuildingBlock: NUHQIS_clean_sbu_0, # of connection points: 6
#     Node 28, Type 1, BuildingBlock: NUHQIS_clean_sbu_0, # of connection points: 6
#     Node 29, Type 1, BuildingBlock: NUHQIS_clean_sbu_0, # of connection points: 6
#     Node 30, Type 1, BuildingBlock: NUHQIS_clean_sbu_0, # of connection points: 6
#     Node 31, Type 1, BuildingBlock: NUHQIS_clean_sbu_0, # of connection points: 6
#     Node 32, Type 1, BuildingBlock: NUHQIS_clean_sbu_0, # of connection points: 6
#     Node 33, Type 1, BuildingBlock: NUHQIS_clean_sbu_0, # of connection points: 6
#     Node 34, Type 1, BuildingBlock: NUHQIS_clean_sbu_0, # of connection points: 6
#     Node 35, Type 1, BuildingBlock: NUHQIS_clean_sbu_0, # of connection points: 6
#     Node 36, Type 1, BuildingBlock: NUHQIS_clean_sbu_0, # of connection points: 6
#     Node 37, Type 1, BuildingBlock: NUHQIS_clean_sbu_0, # of connection points: 6
#     Node 38, Type 1, BuildingBlock: NUHQIS_clean_sbu_0, # of connection points: 6
#     Node 39, Type 1, BuildingBlock: NUHQIS_clean_sbu_0, # of connection points: 6
#     Edge 40, Type (0, 1), BuildingBlock: XUDNAN_clean_linker_2, # of connection points: 2
#     Edge 41, Type (0, 1), BuildingBlock: XUDNAN_clean_linker_2, # of connection points: 2
#     Edge 42, Type (0, 1), BuildingBlock: XUDNAN_clean_linker_2, # of connection points: 2
#     Edge 43, Type (0, 1), BuildingBlock: XUDNAN_clean_linker_2, # of connection points: 2
#     Edge 44, Type (0, 1), BuildingBlock: XUDNAN_clean_linker_2, # of connection points: 2
#     Edge 45, Type (0, 1), BuildingBlock: XUDNAN_clean_linker_2, # of connection points: 2
#     Edge 46, Type (0, 1), BuildingBlock: XUDNAN_clean_linker_2, # of connection points: 2
#     Edge 47, Type (0, 1), BuildingBlock: XUDNAN_clean_linker_2, # of connection points: 2
#     Edge 48, Type (0, 1), BuildingBlock: XUDNAN_clean_linker_2, # of connection points: 2
#     Edge 49, Type (0, 1), BuildingBlock: XUDNAN_clean_linker_2, # of connection points: 2
#     Edge 50, Type (0, 1), BuildingBlock: XUDNAN_clean_linker_2, # of connection points: 2
#     Edge 51, Type (0, 1), BuildingBlock: XUDNAN_clean_linker_2, # of connection points: 2
#     Edge 52, Type (0, 1), BuildingBlock: XUDNAN_clean_linker_2, # of connection points: 2
#     Edge 53, Type (0, 1), BuildingBlock: XUDNAN_clean_linker_2, # of connection points: 2
#     Edge 54, Type (0, 1), BuildingBlock: XUDNAN_clean_linker_2, # of connection points: 2
#     Edge 55, Type (0, 1), BuildingBlock: XUDNAN_clean_linker_2, # of connection points: 2
#     Edge 56, Type (0, 1), BuildingBlock: XUDNAN_clean_linker_2, # of connection points: 2
#     Edge 57, Type (0, 1), BuildingBlock: XUDNAN_clean_linker_2, # of connection points: 2
#     Edge 58, Type (0, 1), BuildingBlock: XUDNAN_clean_linker_2, # of connection points: 2
#     Edge 59, Type (0, 1), BuildingBlock: XUDNAN_clean_linker_2, # of connection points: 2
#     Edge 60, Type (0, 1), BuildingBlock: XUDNAN_clean_linker_2, # of connection points: 2
#     Edge 61, Type (0, 1), BuildingBlock: XUDNAN_clean_linker_2, # of connection points: 2
#     Edge 62, Type (0, 1), BuildingBlock: XUDNAN_clean_linker_2, # of connection points: 2
#     Edge 63, Type (0, 1), BuildingBlock: XUDNAN_clean_linker_2, # of connection points: 2
#     Edge 64, Type (0, 1), BuildingBlock: XUDNAN_clean_linker_2, # of connection points: 2
#     Edge 65, Type (0, 1), BuildingBlock: XUDNAN_clean_linker_2, # of connection points: 2
#     Edge 66, Type (0, 1), BuildingBlock: XUDNAN_clean_linker_2, # of connection points: 2
#     Edge 67, Type (0, 1), BuildingBlock: XUDNAN_clean_linker_2, # of connection points: 2
#     Edge 68, Type (0, 1), BuildingBlock: XUDNAN_clean_linker_2, # of connection points: 2
#     Edge 69, Type (0, 1), BuildingBlock: XUDNAN_clean_linker_2, # of connection points: 2
#     Edge 70, Type (0, 1), BuildingBlock: XUDNAN_clean_linker_2, # of connection points: 2
#     Edge 71, Type (0, 1), BuildingBlock: XUDNAN_clean_linker_2, # of connection points: 2
#     Edge 72, Type (0, 1), BuildingBlock: XUDNAN_clean_linker_2, # of connection points: 2
#     Edge 73, Type (0, 1), BuildingBlock: XUDNAN_clean_linker_2, # of connection points: 2
#     Edge 74, Type (0, 1), BuildingBlock: XUDNAN_clean_linker_2, # of connection points: 2
#     Edge 75, Type (0, 1), BuildingBlock: XUDNAN_clean_linker_2, # of connection points: 2
#     Edge 76, Type (0, 1), BuildingBlock: XUDNAN_clean_linker_2, # of connection points: 2
#     Edge 77, Type (0, 1), BuildingBlock: XUDNAN_clean_linker_2, # of connection points: 2
#     Edge 78, Type (0, 1), BuildingBlock: XUDNAN_clean_linker_2, # of connection points: 2
#     Edge 79, Type (0, 1), BuildingBlock: XUDNAN_clean_linker_2, # of connection points: 2
#     Edge 80, Type (0, 1), BuildingBlock: XUDNAN_clean_linker_2, # of connection points: 2
#     Edge 81, Type (0, 1), BuildingBlock: XUDNAN_clean_linker_2, # of connection points: 2
#     Edge 82, Type (0, 1), BuildingBlock: XUDNAN_clean_linker_2, # of connection points: 2
#     Edge 83, Type (0, 1), BuildingBlock: XUDNAN_clean_linker_2, # of connection points: 2
#     Edge 84, Type (0, 1), BuildingBlock: XUDNAN_clean_linker_2, # of connection points: 2
#     Edge 85, Type (0, 1), BuildingBlock: XUDNAN_clean_linker_2, # of connection points: 2
#     Edge 86, Type (0, 1), BuildingBlock: XUDNAN_clean_linker_2, # of connection points: 2
#     Edge 87, Type (0, 1), BuildingBlock: XUDNAN_clean_linker_2, # of connection points: 2
#     Edge 88, Type (0, 1), BuildingBlock: XUDNAN_clean_linker_2, # of connection points: 2
#     Edge 89, Type (0, 1), BuildingBlock: XUDNAN_clean_linker_2, # of connection points: 2
#     Edge 90, Type (0, 1), BuildingBlock: XUDNAN_clean_linker_2, # of connection points: 2
#     Edge 91, Type (0, 1), BuildingBlock: XUDNAN_clean_linker_2, # of connection points: 2
#     Edge 92, Type (0, 1), BuildingBlock: XUDNAN_clean_linker_2, # of connection points: 2
#     Edge 93, Type (0, 1), BuildingBlock: XUDNAN_clean_linker_2, # of connection points: 2
#     Edge 94, Type (0, 1), BuildingBlock: XUDNAN_clean_linker_2, # of connection points: 2
#     Edge 95, Type (0, 1), BuildingBlock: XUDNAN_clean_linker_2, # of connection points: 2
#     Edge 96, Type (0, 1), BuildingBlock: XUDNAN_clean_linker_2, # of connection points: 2
#     Edge 97, Type (0, 1), BuildingBlock: XUDNAN_clean_linker_2, # of connection points: 2
#     Edge 98, Type (0, 1), BuildingBlock: XUDNAN_clean_linker_2, # of connection points: 2
#     Edge 99, Type (0, 1), BuildingBlock: XUDNAN_clean_linker_2, # of connection points: 2
#     Edge 100, Type (0, 1), BuildingBlock: XUDNAN_clean_linker_2, # of connection points: 2
#     Edge 101, Type (0, 1), BuildingBlock: XUDNAN_clean_linker_2, # of connection points: 2
#     Edge 102, Type (0, 1), BuildingBlock: XUDNAN_clean_linker_2, # of connection points: 2
#     Edge 103, Type (0, 1), BuildingBlock: XUDNAN_clean_linker_2, # of connection points: 2
#     Edge 104, Type (0, 1), BuildingBlock: XUDNAN_clean_linker_2, # of connection points: 2
#     Edge 105, Type (0, 1), BuildingBlock: XUDNAN_clean_linker_2, # of connection points: 2
#     Edge 106, Type (0, 1), BuildingBlock: XUDNAN_clean_linker_2, # of connection points: 2
#     Edge 107, Type (0, 1), BuildingBlock: XUDNAN_clean_linker_2, # of connection points: 2
#     Edge 108, Type (0, 1), BuildingBlock: XUDNAN_clean_linker_2, # of connection points: 2
#     Edge 109, Type (0, 1), BuildingBlock: XUDNAN_clean_linker_2, # of connection points: 2
#     Edge 110, Type (0, 1), BuildingBlock: XUDNAN_clean_linker_2, # of connection points: 2
#     Edge 111, Type (0, 1), BuildingBlock: XUDNAN_clean_linker_2, # of connection points: 2
#     Edge 112, Type (0, 1), BuildingBlock: XUDNAN_clean_linker_2, # of connection points: 2
#     Edge 113, Type (0, 1), BuildingBlock: XUDNAN_clean_linker_2, # of connection points: 2
#     Edge 114, Type (0, 1), BuildingBlock: XUDNAN_clean_linker_2, # of connection points: 2
#     Edge 115, Type (0, 1), BuildingBlock: XUDNAN_clean_linker_2, # of connection points: 2
#     Edge 116, Type (0, 1), BuildingBlock: XUDNAN_clean_linker_2, # of connection points: 2
#     Edge 117, Type (0, 1), BuildingBlock: XUDNAN_clean_linker_2, # of connection points: 2
#     Edge 118, Type (0, 1), BuildingBlock: XUDNAN_clean_linker_2, # of connection points: 2
#     Edge 119, Type (0, 1), BuildingBlock: XUDNAN_clean_linker_2, # of connection points: 2
#     Edge 120, Type (0, 1), BuildingBlock: XUDNAN_clean_linker_2, # of connection points: 2
#     Edge 121, Type (0, 1), BuildingBlock: XUDNAN_clean_linker_2, # of connection points: 2
#     Edge 122, Type (0, 1), BuildingBlock: XUDNAN_clean_linker_2, # of connection points: 2
#     Edge 123, Type (0, 1), BuildingBlock: XUDNAN_clean_linker_2, # of connection points: 2
#     Edge 124, Type (0, 1), BuildingBlock: XUDNAN_clean_linker_2, # of connection points: 2
#     Edge 125, Type (0, 1), BuildingBlock: XUDNAN_clean_linker_2, # of connection points: 2
#     Edge 126, Type (0, 1), BuildingBlock: XUDNAN_clean_linker_2, # of connection points: 2
#     Edge 127, Type (0, 1), BuildingBlock: XUDNAN_clean_linker_2, # of connection points: 2
#     Edge 128, Type (0, 1), BuildingBlock: XUDNAN_clean_linker_2, # of connection points: 2
#     Edge 129, Type (0, 1), BuildingBlock: XUDNAN_clean_linker_2, # of connection points: 2
#     Edge 130, Type (0, 1), BuildingBlock: XUDNAN_clean_linker_2, # of connection points: 2
#     Edge 131, Type (0, 1), BuildingBlock: XUDNAN_clean_linker_2, # of connection points: 2
#     Edge 132, Type (0, 1), BuildingBlock: XUDNAN_clean_linker_2, # of connection points: 2
#     Edge 133, Type (0, 1), BuildingBlock: XUDNAN_clean_linker_2, # of connection points: 2
#     Edge 134, Type (0, 1), BuildingBlock: XUDNAN_clean_linker_2, # of connection points: 2
#     Edge 135, Type (0, 1), BuildingBlock: XUDNAN_clean_linker_2, # of connection points: 2
# Relax obj value: 0.229
# Max RMSD: 0.331
# Mean RMSD: 0.161
data_MOF--net-gar--node1-TATPOV_clean_sbu_0--node2-NUHQIS_clean_sbu_0--edge1-XUDNAN_clean_linker_2
_symmetry_space_group_name_H-M    P1
_symmetry_Int_Tables_number       1
_symmetry_cell_setting            triclinic
loop_
_symmetry_equiv_pos_as_xyz
'x, y, z'
_cell_length_a     56.60566
_cell_length_b     58.893812
_cell_length_c     56.54302
_cell_angle_alpha  93.230317
_cell_angle_beta   97.153476
_cell_angle_gamma 102.42889
loop_
_atom_site_label
_atom_site_type_symbol
_atom_site_fract_x
_atom_site_fract_y
_atom_site_fract_z
_atom_type_partial_charge
Zn0 Zn 0.06304 0.29762 0.44459 0.0
Zn1 Zn 0.09725 0.30018 0.41649 0.0
O2 O 0.10224 0.33515 0.43766 0.0
O3 O 0.07304 0.33094 0.46048 0.0
O4 O 0.1291 0.30491 0.39613 0.0
O5 O 0.06999 0.26828 0.45994 0.0
O6 O 0.09742 0.26755 0.43576 0.0
C7 C 0.09081 0.34419 0.45302 0.0
C8 C 0.04114 0.29447 0.39513 0.0
O9 O 0.06341 0.29583 0.39117 0.0
O10 O 0.03646 0.29434 0.41644 0.0
C11 C 0.13844 0.29063 0.38384 0.0
O12 O 0.12766 0.26838 0.38175 0.0
C13 C 0.08521 0.2579 0.45194 0.0
Zn14 Zn 0.06644 0.77269 0.68102 0.0
Zn15 Zn 0.06966 0.80651 0.6509 0.0
O16 O 0.03851 0.80786 0.67165 0.0
O17 O 0.03552 0.77833 0.69414 0.0
O18 O 0.0718 0.83728 0.62843 0.0
O19 O 0.10158 0.78567 0.69763 0.0
O20 O 0.10561 0.81298 0.67241 0.0
C21 C 1.02736 0.79557 0.68701 0.0
C22 C 0.06515 0.75075 0.63386 0.0
O23 O 0.06641 0.7722 0.62841 0.0
O24 O 0.06398 0.74649 0.65544 0.0
C25 C 0.07271 0.85901 0.63523 0.0
O26 O 0.0721 0.86423 0.658 0.0
C27 C 0.11509 0.80271 0.68952 0.0
Zn28 Zn 0.56153 0.7948 0.94409 0.0
Zn29 Zn 0.59634 0.79785 0.91689 0.0
O30 O 0.6023 0.83249 0.93877 0.0
O31 O 0.57117 0.82871 0.95912 0.0
O32 O 0.62779 0.80244 0.8958 0.0
O33 O 0.56939 0.76637 0.96044 0.0
O34 O 0.59631 0.76482 0.93591 0.0
C35 C 0.59004 0.84169 0.95317 0.0
C36 C 0.53947 0.7913 0.89508 0.0
O37 O 0.56218 0.79472 0.89177 0.0
O38 O 0.53435 0.78924 0.91614 0.0
C39 C 0.64062 0.78825 0.88861 0.0
O40 O 0.63473 0.76644 0.89371 0.0
C41 C 0.58437 0.75564 0.9525 0.0
Zn42 Zn 0.56684 0.27086 0.18108 0.0
Zn43 Zn 0.57064 0.30455 0.15063 0.0
O44 O 0.53852 0.30525 0.17018 0.0
O45 O 0.53574 0.27659 0.19375 0.0
O46 O 0.57261 0.33505 0.12789 0.0
O47 O 0.60151 0.28428 0.19858 0.0
O48 O 0.60612 0.31132 0.17308 0.0
C49 C 0.52729 0.29338 0.18578 0.0
C50 C 0.5672 0.24918 0.13377 0.0
O51 O 0.56867 0.27064 0.12836 0.0
O52 O 0.5651 0.24478 0.1552 0.0
C53 C 0.57561 0.35713 0.13462 0.0
O54 O 0.57796 0.36308 0.15767 0.0
C55 C 0.6152 0.30132 0.19067 0.0
Zn56 Zn 0.15939 0.86319 0.13042 0.0
Zn57 Zn 0.12418 0.86814 0.15804 0.0
O58 O 0.1209 0.89098 0.13286 0.0
O59 O 0.14696 0.88544 0.10839 0.0
O60 O 0.09884 0.87158 0.17883 0.0
O61 O 0.14345 0.82857 0.12572 0.0
O62 O 0.11408 0.83381 0.14614 0.0
C63 C 0.13047 0.89542 0.11397 0.0
C64 C 0.17802 0.87751 0.18003 0.0
O65 O 0.15542 0.87523 0.18151 0.0
O66 O 0.185 0.87468 0.15982 0.0
C67 C 0.10249 0.88721 0.19616 0.0
O68 O 0.1234 0.90263 0.20027 0.0
C69 C 0.12392 0.82041 0.13413 0.0
Zn70 Zn 0.48399 0.72099 0.4232 0.0
Zn71 Zn 0.52185 0.73552 0.39817 0.0
O72 O 0.51738 0.76549 0.41433 0.0
O73 O 0.48833 0.7547 0.43665 0.0
O74 O 0.54911 0.74676 0.37961 0.0
O75 O 0.50416 0.70083 0.44007 0.0
O76 O 0.53532 0.71464 0.42122 0.0
C77 C 0.50388 0.77058 0.42924 0.0
C78 C 0.47148 0.71169 0.37182 0.0
O79 O 0.49402 0.7207 0.37198 0.0
O80 O 0.46271 0.7097 0.39136 0.0
C81 C 0.54704 0.76223 0.3652 0.0
O82 O 0.52707 0.77035 0.36298 0.0
C83 C 0.52606 0.70193 0.43667 0.0
Zn84 Zn 0.70992 0.38525 0.66714 0.0
Zn85 Zn 0.67211 0.3681 0.6924 0.0
O86 O 0.65755 0.38787 0.66945 0.0
O87 O 0.6866 0.40151 0.64805 0.0
O88 O 0.64382 0.35521 0.70939 0.0
O89 O 0.71038 0.35153 0.65678 0.0
O90 O 0.67924 0.33934 0.67622 0.0
C91 C 0.665 0.3998 0.65274 0.0
C92 C 0.72019 0.39806 0.71845 0.0
O93 O 0.69875 0.38574 0.71843 0.0
O94 O 0.72899 0.40073 0.69897 0.0
C95 C 0.63487 0.36895 0.72189 0.0
O96 O 0.64531 0.39131 0.72454 0.0
C97 C 0.69459 0.33503 0.66296 0.0
Zn98 Zn 0.99357 0.24236 0.94531 0.0
Zn99 Zn 1.02698 0.23518 0.91574 0.0
O100 O 0.03498 0.27013 0.91944 0.0
O101 O 1.00734 0.27714 0.94142 0.0
O102 O 0.052 0.2265 0.89744 0.0
O103 O 1.01026 0.22678 0.97231 0.0
O104 O 0.03447 0.22098 0.94623 0.0
C105 C 1.02501 0.28445 0.92992 0.0
C106 C 0.97273 0.21868 0.89824 0.0
O107 O 0.99494 0.22256 0.89482 0.0
O108 O 0.96714 0.22378 0.91863 0.0
C109 C 0.05855 0.23619 0.87913 0.0
O110 O 0.04796 0.2525 0.87093 0.0
C111 C 1.02814 0.21881 0.96686 0.0
Zn112 Zn 0.59102 0.11739 0.34084 0.0
Zn113 Zn 0.55015 0.13081 0.32478 0.0
O114 O 0.55847 0.14823 0.35849 0.0
O115 O 0.59297 0.13801 0.37062 0.0
O116 O 0.52037 0.1404 0.30932 0.0
O117 O 0.60867 0.13199 0.31536 0.0
O118 O 0.5747 0.1422 0.30149 0.0
C119 C 0.57715 0.14964 0.37408 0.0
C120 C 0.54911 0.07881 0.32923 0.0
O121 O 0.5382 0.09515 0.3245 0.0
O122 O 0.57191 0.08359 0.33627 0.0
C123 C 0.49931 0.13454 0.31569 0.0
O124 O 0.49645 0.1223 0.33426 0.0
C125 C 0.59699 0.142 0.30027 0.0
Zn126 Zn 0.32612 0.21193 0.52801 0.0
Zn127 Zn 0.35718 0.18396 0.52947 0.0
O128 O 0.36102 0.20382 0.49689 0.0
O129 O 0.33234 0.22389 0.49538 0.0
O130 O 0.38474 0.16201 0.52996 0.0
O131 O 0.34055 0.23022 0.56036 0.0
O132 O 0.36223 0.20349 0.56511 0.0
C133 C 0.3493 0.21767 0.48582 0.0
C134 C 0.29987 0.16379 0.52818 0.0
O135 O 0.32126 0.15986 0.52665 0.0
O136 O 0.29742 0.18469 0.52942 0.0
C137 C 0.40829 0.16696 0.53588 0.0
O138 O 0.41906 0.18864 0.54349 0.0
C139 C 0.35455 0.22089 0.574 0.0
Zn140 Zn 0.25381 0.13921 0.88241 0.0
Zn141 Zn 0.2709 0.10704 0.85736 0.0
O142 O 0.25831 0.08811 0.8841 0.0
O143 O 0.24184 0.11341 0.90282 0.0
O144 O 0.28173 0.08397 0.83653 0.0
O145 O 0.23146 0.14371 0.85294 0.0
O146 O 0.24449 0.116 0.83428 0.0
C147 C 0.24641 0.09335 0.9004 0.0
C148 C 0.30566 0.15224 0.87959 0.0
O149 O 0.30145 0.13297 0.86675 0.0
O150 O 0.28854 0.15838 0.88895 0.0
C151 C 0.2983 0.07369 0.84423 0.0
O152 O 0.30891 0.07854 0.86651 0.0
C153 C 0.23078 0.13053 0.83428 0.0
Zn154 Zn 0.37313 0.86372 0.03794 0.0
Zn155 Zn 0.33977 0.89132 0.03467 0.0
O156 O 0.3296 0.87023 1.00363 0.0
O157 O 0.35795 0.84966 1.00456 0.0
O158 O 0.31491 0.9109 0.03509 0.0
O159 O 0.36095 0.85137 0.06809 0.0
O160 O 0.33789 0.87707 0.06626 0.0
C161 C 0.33927 0.85521 0.9938 0.0
C162 C 0.39377 0.91352 0.03891 0.0
O163 O 0.37155 0.91497 0.03522 0.0
O164 O 0.3992 0.89391 0.04139 0.0
C165 C 0.31903 0.92715 0.05186 0.0
O166 O 0.33922 0.93049 0.0671 0.0
C167 C 0.34649 0.86179 0.07729 0.0
Zn168 Zn 0.33814 0.39981 0.03975 0.0
Zn169 Zn 0.3057 0.426 0.03529 0.0
O170 O 0.30129 0.40443 1.00068 0.0
O171 O 0.32981 0.38428 1.0055 0.0
O172 O 0.27545 0.44495 0.03075 0.0
O173 O 0.32787 0.38406 0.0694 0.0
O174 O 0.30401 0.40899 0.07005 0.0
C175 C 0.313 0.39009 0.99183 0.0
C176 C 0.3627 0.44839 0.04038 0.0
O177 O 0.34052 0.45101 0.03608 0.0
O178 O 0.36633 0.42838 0.04443 0.0
C179 C 0.26285 0.45303 0.04554 0.0
O180 O 0.26819 0.45054 0.06839 0.0
C181 C 0.31339 0.39309 0.08025 0.0
Zn182 Zn 0.79319 0.23378 0.0279 0.0
Zn183 Zn 0.8317 0.2121 0.03219 0.0
O184 O 0.83553 0.23076 1.00338 0.0
O185 O 0.80593 0.24977 0.99978 0.0
O186 O 0.86159 0.19892 0.03422 0.0
O187 O 0.80504 0.24795 0.06214 0.0
O188 O 0.83681 0.23173 0.0638 0.0
C189 C 0.82472 0.24486 0.99266 0.0
C190 C 0.77959 0.18297 0.023 0.0
O191 O 0.80245 0.18419 0.02777 0.0
O192 O 0.77146 0.20136 0.02159 0.0
C193 C 0.86401 0.18151 0.02118 0.0
O194 O 0.84533 0.16977 1.00599 0.0
C195 C 0.82471 0.2447 0.07335 0.0
Zn196 Zn 0.07816 0.4877 0.23235 0.0
Zn197 Zn 0.12301 0.47895 0.23466 0.0
O198 O 0.10897 0.46261 0.26284 0.0
O199 O 0.07153 0.46836 0.2597 0.0
O200 O 0.15687 0.47306 0.23711 0.0
O201 O 0.06968 0.47109 0.19962 0.0
O202 O 0.10669 0.46453 0.20086 0.0
C203 C 0.08809 0.45945 0.26992 0.0
C204 C 0.11665 0.5295 0.23976 0.0
O205 O 0.12999 0.51469 0.23886 0.0
O206 O 0.09362 0.52255 0.2376 0.0
C207 C 0.17031 0.47663 0.25732 0.0
O208 O 0.1616 0.48379 0.27618 0.0
C209 C 0.08514 0.46251 0.18993 0.0
Zn210 Zn 0.83793 0.89888 0.543 0.0
Zn211 Zn 0.80543 0.92484 0.53968 0.0
O212 O 0.80167 0.90366 0.50481 0.0
O213 O 0.82688 0.88019 0.51061 0.0
O214 O 0.77501 0.94368 0.53486 0.0
O215 O 0.83133 0.88647 0.57508 0.0
O216 O 0.8022 0.90607 0.57324 0.0
C217 C 0.81148 0.88746 0.4965 0.0
C218 C 0.86249 0.94725 0.54271 0.0
O219 O 0.84056 0.95049 0.54245 0.0
O220 O 0.86576 0.92666 0.54298 0.0
C221 C 0.76358 0.95349 0.54958 0.0
O222 O 0.77051 0.95333 0.57261 0.0
C223 C 0.81427 0.89258 0.58456 0.0
Zn224 Zn 0.95403 0.98128 0.19131 0.0
Zn225 Zn 0.94461 0.02201 0.20835 0.0
O226 O 0.97402 1.0188 0.23147 0.0
O227 O 0.98113 0.98496 0.21952 0.0
O228 O 0.93686 0.05148 0.22147 0.0
O229 O 0.96167 0.99632 0.16159 0.0
O230 O 0.9531 0.02899 0.17512 0.0
C231 C 0.98637 1.00318 0.23393 0.0
C232 C 0.90626 0.97587 0.20416 0.0
O233 O 0.91393 0.99741 0.21103 0.0
O234 O 0.91966 0.96488 0.194 0.0
C235 C 0.91536 0.05493 0.2176 0.0
O236 O 0.89821 0.03928 0.2041 0.0
C237 C 0.96005 1.01714 0.1589 0.0
Zn238 Zn 0.30333 0.73383 0.52752 0.0
Zn239 Zn 0.33048 0.70074 0.5254 0.0
O240 O 0.33714 0.71996 0.49718 0.0
O241 O 0.31608 0.74729 0.49816 0.0
O242 O 0.35138 0.67739 0.52248 0.0
O243 O 0.32128 0.7448 0.56065 0.0
O244 O 0.34104 0.71643 0.55956 0.0
C245 C 0.33036 0.73724 0.4882 0.0
C246 C 0.27527 0.68564 0.51975 0.0
O247 O 0.29609 0.68076 0.51991 0.0
O248 O 0.27343 0.70662 0.52327 0.0
C249 C 0.34832 0.66488 0.50279 0.0
O250 O 0.33166 0.66761 0.48547 0.0
C251 C 0.33605 0.73379 0.5708 0.0
Zn252 Zn 0.42177 0.48346 0.69305 0.0
Zn253 Zn 0.39329 0.51283 0.70516 0.0
O254 O 0.41053 0.5074 0.737 0.0
O255 O 0.43538 0.48499 0.7286 0.0
O256 O 0.37294 0.5343 0.71526 0.0
O257 O 0.43777 0.5083 0.67317 0.0
O258 O 0.4166 0.53273 0.6859 0.0
C259 C 0.42684 0.49646 0.74381 0.0
C260 C 0.37003 0.46393 0.68093 0.0
O261 O 0.3685 0.48394 0.68949 0.0
O262 O 0.39083 0.45947 0.67991 0.0
C263 C 0.35947 0.52879 0.73135 0.0
O264 O 0.35793 0.50827 0.73981 0.0
C265 C 0.43296 0.52833 0.67404 0.0
Zn266 Zn 0.58777 0.99102 0.75782 0.0
Zn267 Zn 0.63206 0.98234 0.7564 0.0
O268 O 0.61791 0.96099 0.78116 0.0
O269 O 0.58001 0.96518 0.77906 0.0
O270 O 0.66649 0.97775 0.75856 0.0
O271 O 0.58102 0.98233 0.72264 0.0
O272 O 0.61613 0.97208 0.72168 0.0
C273 C 0.59661 0.95518 0.78712 0.0
C274 C 0.62521 0.0319 0.77096 0.0
O275 O 0.63793 1.0177 0.76498 0.0
O276 O 0.60245 0.02469 0.77092 0.0
C277 C 0.68179 0.98896 0.77593 0.0
O278 O 0.6745 1.00264 0.79126 0.0
C279 C 0.59543 0.97389 0.71116 0.0
Zn280 Zn 0.82585 0.71006 0.03029 0.0
Zn281 Zn 0.85673 0.6822 0.03262 0.0
O282 O 0.85921 0.70082 0.99925 0.0
O283 O 0.83514 0.7255 1.00006 0.0
O284 O 0.88402 0.66022 0.03197 0.0
O285 O 0.83631 0.72518 0.06424 0.0
O286 O 0.86223 0.70215 0.06857 0.0
C287 C 0.84986 0.71679 0.98926 0.0
C288 C 0.79954 0.66179 0.02856 0.0
O289 O 0.82128 0.65802 0.02999 0.0
O290 O 0.79681 0.68253 0.02761 0.0
C291 C 0.90713 0.66395 0.03993 0.0
O292 O 0.91777 0.68431 0.05139 0.0
C293 C 0.85188 0.71754 0.07776 0.0
Zn294 Zn 0.09078 0.6061 0.84075 0.0
Zn295 Zn 0.05722 0.62979 0.82431 0.0
O296 O 0.06756 0.64536 0.85882 0.0
O297 O 0.09677 0.62737 0.87086 0.0
O298 O 1.03161 0.64541 0.80898 0.0
O299 O 0.11097 0.6172 0.8152 0.0
O300 O 0.08389 0.63722 0.80249 0.0
C301 C 0.08471 0.64269 0.87456 0.0
C302 C 0.04337 0.57612 0.82684 0.0
O303 O 0.03838 0.59548 0.82156 0.0
O304 O 0.06486 0.5756 0.83591 0.0
C305 C 1.01095 0.64372 0.81614 0.0
O306 O 1.00653 0.63265 0.83521 0.0
C307 C 0.10402 0.63119 0.80114 0.0
Zn308 Zn 0.86326 0.36607 0.54223 0.0
Zn309 Zn 0.83245 0.39654 0.54283 0.0
O310 O 0.82301 0.37989 0.50912 0.0
O311 O 0.84697 0.35499 0.50816 0.0
O312 O 0.81173 0.42046 0.54362 0.0
O313 O 0.84878 0.35205 0.57073 0.0
O314 O 0.82477 0.37694 0.57071 0.0
C315 C 0.83037 0.36395 0.49791 0.0
C316 C 0.88828 0.4146 0.55016 0.0
O317 O 0.86648 0.41736 0.54835 0.0
O318 O 0.89228 0.39425 0.54819 0.0
C319 C 0.80585 0.42835 0.56293 0.0
O320 O 0.81228 0.41988 0.58313 0.0
C321 C 0.83266 0.36023 0.57981 0.0
Zn322 Zn 0.67731 0.5879 0.36678 0.0
Zn323 Zn 0.70287 0.55954 0.34782 0.0
O324 O 0.69915 0.54628 0.37993 0.0
O325 O 0.68341 0.57287 0.39737 0.0
O326 O 0.72541 0.54198 0.33439 0.0
O327 O 0.64877 0.57242 0.34166 0.0
O328 O 0.67106 0.55152 0.32473 0.0
C329 C 0.69195 0.5547 0.39818 0.0
C330 C 0.72022 0.61371 0.35314 0.0
O331 O 0.7227 0.59306 0.3484 0.0
O332 O 0.701 0.61702 0.36066 0.0
C333 C 0.74746 0.54765 0.34448 0.0
O334 O 0.75338 0.56347 0.36282 0.0
C335 C 0.65088 0.55767 0.32529 0.0
Tb336 Tb 0.10333 0.0841 0.02723 0.0
Eu337 Eu 0.14742 0.08961 0.07407 0.0
C338 C 0.15216 0.07005 0.0197 0.0
C339 C 0.11276 0.03973 0.05273 0.0
C340 C 0.05039 0.10129 0.99722 0.0
C341 C 1.01128 0.10989 0.98278 0.0
C342 C 1.02978 0.09794 0.9798 0.0
C343 C 0.05242 0.1168 0.01745 0.0
C344 C 1.03388 0.12828 0.02071 0.0
C345 C 1.01299 0.12507 1.00344 0.0
C346 C 0.06912 0.0877 0.99552 0.0
O347 O 0.0921 0.0991 0.0587 0.0
O348 O 0.11116 0.08091 0.08721 0.0
O349 O 0.13931 0.1249 0.06909 0.0
O350 O 0.13352 0.11421 0.03004 0.0
C351 C 0.09257 0.08943 0.07889 0.0
O352 O 0.16026 0.08446 0.11097 0.0
O353 O 0.18591 0.10205 0.08886 0.0
O354 O 0.16277 0.08164 0.04029 0.0
O355 O 0.12866 0.06688 1.01209 0.0
O356 O 0.09718 0.04939 0.03988 0.0
O357 O 0.13394 0.05127 0.06419 0.0
C358 C 0.13551 0.13058 0.04719 0.0
O359 O 0.0915 0.09982 0.99679 0.0
O360 O 0.06778 0.07074 1.00945 0.0
C361 C 0.19722 0.07203 0.11008 0.0
C362 C 0.2208 0.03578 0.10005 0.0
C363 C 0.19651 0.03061 0.10466 0.0
C364 C 0.18482 0.04852 0.10961 0.0
C365 C 0.22213 0.07717 0.10754 0.0
C366 C 0.23386 0.05917 0.1026 0.0
C367 C 0.18316 0.09041 0.10771 0.0
H368 H 0.99573 0.10724 0.96888 0.0
H369 H 1.02792 0.086 0.96404 0.0
H370 H 0.06825 0.11985 0.03099 0.0
H371 H 0.03586 0.1393 0.03714 0.0
H372 H 0.18614 1.01271 0.10325 0.0
H373 H 0.16559 0.04383 0.1114 0.0
H374 H 0.23201 0.09511 0.10761 0.0
H375 H 0.25262 0.06364 0.0991 0.0
Tb376 Tb 0.35364 0.82663 0.29889 0.0
Eu377 Eu 0.31112 0.78231 0.26881 0.0
C378 C 0.30017 0.83057 0.28447 0.0
C379 C 0.3253 0.78621 0.32577 0.0
C380 C 0.40105 0.88264 0.31747 0.0
C381 C 0.42009 0.92269 0.33306 0.0
C382 C 0.40358 0.90154 0.33459 0.0
C383 C 0.41454 0.8856 0.29816 0.0
C384 C 0.43121 0.90662 0.29677 0.0
C385 C 0.43459 0.92519 0.31451 0.0
C386 C 0.38635 0.85951 0.3214 0.0
O387 O 0.36693 0.79471 0.2989 0.0
O388 O 0.34816 0.77758 0.26231 0.0
O389 O 0.32177 0.80721 0.2417 0.0
O390 O 0.35787 0.8309 0.2615 0.0
C391 C 0.36578 0.78011 0.28018 0.0
O392 O 0.29999 0.74602 0.25442 0.0
O393 O 0.27442 0.76855 0.24913 0.0
O394 O 0.2932 0.80812 0.28648 0.0
O395 O 0.32312 0.84032 0.28375 0.0
O396 O 0.33355 0.80891 0.32574 0.0
O397 O 0.31901 0.77231 0.30598 0.0
C398 C 0.34189 0.82331 0.24217 0.0
O399 O 0.36303 0.85758 0.32206 0.0
O400 O 0.3907 0.84143 0.30974 0.0
C401 C 0.2577 0.72789 0.25027 0.0
C402 C 0.22016 0.68821 0.25302 0.0
C403 C 0.243 0.69129 0.26731 0.0
C404 C 0.26158 0.71097 0.266 0.0
C405 C 0.23474 0.72511 0.23645 0.0
C406 C 0.21613 0.70553 0.23786 0.0
C407 C 0.27776 0.74736 0.24637 0.0
H408 H 0.42242 0.93665 0.34705 0.0
H409 H 0.39346 0.89966 0.34969 0.0
H410 H 0.41288 0.87142 0.28456 0.0
H411 H 0.44193 0.90816 0.28211 0.0
H412 H 0.24656 0.67838 0.27937 0.0
H413 H 0.2791 0.71264 0.27692 0.0
H414 H 0.2314 0.7378 0.22403 0.0
H415 H 0.19886 0.70356 0.22642 0.0
Tb416 Tb 0.5684 0.03972 0.50965 0.0
Eu417 Eu 0.5948 0.07024 0.55863 0.0
C418 C 0.56636 1.01818 0.55825 0.0
C419 C 0.54026 0.07457 0.5356 0.0
C420 C 0.54816 0.98904 0.46665 0.0
C421 C 0.55832 0.95339 0.47968 0.0
C422 C 0.56191 0.97759 0.48234 0.0
C423 C 0.53205 0.97626 0.44727 0.0
C424 C 0.52875 0.952 0.44435 0.0
C425 C 0.54122 0.9404 0.46108 0.0
C426 C 0.54793 1.0134 0.47292 0.0
O427 O 0.57443 0.07537 0.50036 0.0
O428 O 0.60584 0.09311 0.52957 0.0
O429 O 0.61824 0.04347 0.55213 0.0
O430 O 0.60705 0.03649 0.5118 0.0
C431 C 0.59153 0.09349 0.50962 0.0
O432 O 0.62899 0.08583 0.58146 0.0
O433 O 0.59461 0.08743 0.59383 0.0
O434 O 0.56839 0.03915 0.56835 0.0
O435 O 0.5709 1.01512 0.5364 0.0
O436 O 0.53898 0.0543 0.52337 0.0
O437 O 0.56117 0.08571 0.54836 0.0
C438 C 0.62202 0.03476 0.53126 0.0
O439 O 0.53736 1.01636 0.49171 0.0
O440 O 0.56869 0.02849 0.47373 0.0
C441 C 0.62832 0.11951 0.60497 0.0
C442 C 0.65017 0.16717 0.61565 0.0
C443 C 0.66239 0.15014 0.62387 0.0
C444 C 0.65148 0.12648 0.61863 0.0
C445 C 0.61601 0.13647 0.59678 0.0
C446 C 0.62679 0.16014 0.60224 0.0
C447 C 0.61835 0.09462 0.59774 0.0
H448 H 0.5682 0.94472 0.49266 0.0
H449 H 0.57442 0.98724 0.49742 0.0
H450 H 0.52118 0.98488 0.43516 0.0
H451 H 0.5154 0.94219 0.42995 0.0
H452 H 0.68032 0.15514 0.63442 0.0
H453 H 0.66133 0.11359 0.62488 0.0
H454 H 0.59829 0.13146 0.58582 0.0
H455 H 0.6171 0.17296 0.59552 0.0
Tb456 Tb 0.3078 0.29004 0.77734 0.0
Eu457 Eu 0.35984 0.32637 0.78461 0.0
C458 C 0.31422 0.33705 0.75543 0.0
C459 C 0.34438 0.28659 0.73935 0.0
C460 C 0.24613 0.25206 0.78184 0.0
C461 C 0.20246 0.23778 0.77994 0.0
C462 C 0.22278 0.24558 0.76857 0.0
C463 C 0.24915 0.24996 0.80657 0.0
C464 C 0.22876 0.24194 0.81797 0.0
C465 C 0.20522 0.23627 0.80477 0.0
C466 C 0.26663 0.26205 0.76947 0.0
O467 O 0.32974 0.2808 0.80794 0.0
O468 O 0.36654 0.29171 0.79465 0.0
O469 O 0.34498 0.33158 0.82004 0.0
O470 O 0.3045 0.31407 0.80805 0.0
C471 C 0.35262 0.27953 0.80836 0.0
O472 O 0.39436 0.34293 0.8064 0.0
O473 O 0.38604 0.35352 0.77076 0.0
O474 O 0.33062 0.34568 0.77385 0.0
O475 O 0.30829 0.31454 0.75008 0.0
O476 O 0.32846 0.27511 0.75211 0.0
O477 O 0.35631 0.30815 0.74674 0.0
C478 C 0.32204 0.32693 0.82422 0.0
O479 O 0.27 0.28439 0.7672 0.0
O480 O 0.28714 0.25565 0.77522 0.0
C481 C 0.42696 0.35275 0.78396 0.0
C482 C 0.47294 0.34862 0.77232 0.0
C483 C 0.46487 0.36942 0.7693 0.0
C484 C 0.4421 0.37147 0.77515 0.0
C485 C 0.43487 0.33195 0.787 0.0
C486 C 0.45771 0.32996 0.78138 0.0
C487 C 0.40271 0.35483 0.78925 0.0
H488 H 0.18449 0.23335 0.7694 0.0
H489 H 0.22021 0.24709 0.74946 0.0
H490 H 0.26711 0.25503 0.81708 0.0
H491 H 0.23127 0.24109 0.83719 0.0
H492 H 0.47591 0.38399 0.76197 0.0
H493 H 0.43619 0.38757 0.7725 0.0
H494 H 0.42339 0.31718 0.79363 0.0
H495 H 0.46344 0.31382 0.78423 0.0
Tb496 Tb 0.07774 0.04414 0.51115 0.0
Eu497 Eu 0.08387 0.06765 0.56507 0.0
C498 C 0.13171 0.07061 0.53708 0.0
C499 C 0.08371 1.01128 0.5553 0.0
C500 C 0.07259 0.03036 0.44386 0.0
C501 C 0.09146 0.02399 0.4084 0.0
C502 C 0.09144 0.02371 0.43312 0.0
C503 C 0.05448 0.0384 0.42959 0.0
C504 C 0.05442 0.03856 0.40496 0.0
C505 C 0.07248 0.03068 0.39393 0.0
C506 C 0.0696 0.0255 0.4688 0.0
O507 O 0.04286 0.03043 0.52466 0.0
O508 O 0.04321 0.06045 0.55166 0.0
O509 O 0.08284 0.09827 0.54246 0.0
O510 O 0.07718 0.08137 0.50411 0.0
C511 C 1.03115 0.04161 0.53831 0.0
O512 O 0.077 0.06519 0.60216 0.0
O513 O 0.09372 0.09847 0.59052 0.0
O514 O 0.12341 0.07323 0.55766 0.0
O515 O 0.11708 0.06046 0.51757 0.0
O516 O 0.0837 1.01452 0.53225 0.0
O517 O 0.08357 0.02896 0.5708 0.0
C518 C 0.08046 0.10025 0.51923 0.0
O519 O 0.08905 0.02513 0.4837 0.0
O520 O 0.05428 0.03523 0.47886 0.0
C521 C 0.10216 0.09381 0.63175 0.0
C522 C 0.12843 0.10787 0.67782 0.0
C523 C 0.12053 0.08403 0.66987 0.0
C524 C 0.10747 0.07704 0.64704 0.0
C525 C 0.11031 0.11758 0.63956 0.0
C526 C 0.12338 0.12455 0.66231 0.0
C527 C 0.08662 0.0872 0.60843 0.0
H528 H 0.1058 1.01808 0.40051 0.0
H529 H 0.10554 1.01724 0.44363 0.0
H530 H 0.0395 0.04336 0.4372 0.0
H531 H 0.03923 0.04342 0.39444 0.0
H532 H 0.12391 0.07074 0.68151 0.0
H533 H 0.1012 0.05857 0.64157 0.0
H534 H 0.10625 0.13083 0.62816 0.0
H535 H 0.12953 0.14303 0.66775 0.0
Tb536 Tb 0.32241 0.77917 0.78627 0.0
Eu537 Eu 0.34739 0.83083 0.77319 0.0
C538 C 0.32519 0.8215 0.82123 0.0
C539 C 0.28892 0.81086 0.76017 0.0
C540 C 0.30868 0.7164 0.79805 0.0
C541 C 0.29472 0.67459 0.79862 0.0
C542 C 0.29044 0.69701 0.80108 0.0
C543 C 0.33159 0.71338 0.79338 0.0
C544 C 0.33592 0.69097 0.79097 0.0
C545 C 0.31733 0.67131 0.79303 0.0
C546 C 0.30281 0.73936 0.79765 0.0
O547 O 0.34153 0.7725 0.75647 0.0
O548 O 0.34211 0.80704 0.73972 0.0
O549 O 0.37892 0.81311 0.78092 0.0
O550 O 0.36085 0.7867 0.80509 0.0
C551 C 0.3439 0.78522 0.73824 0.0
O552 O 0.35356 0.85732 0.74789 0.0
O553 O 0.37196 0.86478 0.78429 0.0
O554 O 0.34461 0.83207 0.8126 0.0
O555 O 0.31007 0.8036 0.80913 0.0
O556 O 0.29285 0.78973 0.76278 0.0
O557 O 0.30658 0.82952 0.76712 0.0
C558 C 0.38082 0.79861 0.79757 0.0
O559 O 0.31652 0.75586 0.81285 0.0
O560 O 0.29899 0.74645 0.77639 0.0
C561 C 0.35959 0.89572 0.76563 0.0
C562 C 0.3458 0.93846 0.77227 0.0
C563 C 0.37037 0.93722 0.77776 0.0
C564 C 0.37722 0.91599 0.77437 0.0
C565 C 0.33507 0.89696 0.75985 0.0
C566 C 0.32826 0.91821 0.76301 0.0
C567 C 0.36677 0.87324 0.76398 0.0
H568 H 0.27998 0.6598 0.80004 0.0
H569 H 0.2726 0.69914 0.80452 0.0
H570 H 0.34582 0.72826 0.79092 0.0
H571 H 0.35363 0.68899 0.78698 0.0
H572 H 0.38423 0.95263 0.78483 0.0
H573 H 0.39619 0.9153 0.77902 0.0
H574 H 0.32109 0.88146 0.75336 0.0
H575 H 0.30916 0.91864 0.75897 0.0
Tb576 Tb 0.59972 0.04765 0.06341 0.0
Eu577 Eu 0.57516 0.05268 1.01081 0.0
C578 C 0.59328 1.00502 0.02308 0.0
C579 C 0.632 0.06849 0.02664 0.0
C580 C 0.62998 0.06631 0.12321 0.0
C581 C 0.63773 0.10811 0.13332 0.0
C582 C 0.63203 0.08909 0.11619 0.0
C583 C 0.63548 0.06283 0.14736 0.0
C584 C 0.64166 0.08194 0.1645 0.0
C585 C 0.64204 0.10454 0.15758 0.0
C586 C 0.61904 0.04648 0.10565 0.0
O587 O 0.58737 0.08125 0.06766 0.0
O588 O 0.58064 0.0898 0.02856 0.0
O589 O 0.5468 0.05004 0.03528 0.0
O590 O 0.56331 0.02519 0.05735 0.0
C591 C 0.58315 0.09623 0.05176 0.0
O592 O 0.57531 0.06492 0.97503 0.0
O593 O 0.54309 0.0414 0.98375 0.0
O594 O 0.57628 1.01384 1.01126 0.0
O595 O 0.60711 1.01732 0.04219 0.0
O596 O 0.62677 0.07188 0.04818 0.0
O597 O 0.61541 0.05718 1.00942 0.0
C598 C 0.5442 0.03299 0.04911 0.0
O599 O 0.59558 0.04384 0.09939 0.0
O600 O 0.63044 0.04497 0.08716 0.0
C601 C 0.55848 0.03072 0.94987 0.0
C602 C 0.5613 0.98953 0.92364 0.0
C603 C 0.54225 1.00095 0.91708 0.0
C604 C 0.54067 0.02127 0.93034 0.0
C605 C 0.57764 0.01955 0.95612 0.0
C606 C 0.5788 0.99901 0.94348 0.0
C607 C 0.55537 0.0493 0.96675 0.0
H608 H 0.63768 0.12541 0.12776 0.0
H609 H 0.62795 0.09206 0.09756 0.0
H610 H 0.63381 0.04536 0.15304 0.0
H611 H 0.64455 0.07894 0.18327 0.0
H612 H 0.5287 0.99438 0.90159 0.0
H613 H 0.52546 0.02936 0.92559 0.0
H614 H 0.59141 0.02633 0.97137 0.0
H615 H 0.59343 0.99054 0.94938 0.0
Tb616 Tb 0.34627 0.33168 0.29625 0.0
Eu617 Eu 0.32256 0.28085 0.27092 0.0
C618 C 0.34813 0.28783 0.32679 0.0
C619 C 0.37899 0.3053 0.26633 0.0
C620 C 0.34998 0.39257 0.31428 0.0
C621 C 0.31294 0.4065 0.31729 0.0
C622 C 0.32761 0.39085 0.3232 0.0
C623 C 0.35828 0.41143 0.30103 0.0
C624 C 0.34355 0.42708 0.29505 0.0
C625 C 0.3203 0.4242 0.30234 0.0
C626 C 0.36239 0.3729 0.315 0.0
O627 O 0.3247 0.33925 0.26324 0.0
O628 O 0.31994 0.30492 0.24045 0.0
O629 O 0.28903 0.29175 0.28358 0.0
O630 O 0.30963 0.32432 0.30781 0.0
C631 C 0.32015 0.32739 0.24197 0.0
O632 O 0.31883 0.25503 0.24054 0.0
O633 O 0.30008 0.24562 0.27063 0.0
O634 O 0.33111 0.27514 0.3105 0.0
O635 O 0.36012 0.30857 0.32196 0.0
O636 O 0.3737 0.32504 0.27368 0.0
O637 O 0.36391 0.28534 0.26885 0.0
C638 C 0.28928 0.30847 0.30037 0.0
O639 O 0.3533 0.35552 0.32681 0.0
O640 O 0.36724 0.36551 0.29445 0.0
C641 C 0.32025 0.21858 0.25432 0.0
C642 C 0.35313 0.18876 0.25806 0.0
C643 C 0.33949 0.19035 0.23588 0.0
C644 C 0.32317 0.20518 0.23404 0.0
C645 C 0.33279 0.21593 0.27669 0.0
C646 C 0.34897 0.20111 0.27855 0.0
C647 C 0.30775 0.23797 0.25161 0.0
H648 H 0.29507 0.40365 0.32307 0.0
H649 H 0.32064 0.37656 0.3335 0.0
H650 H 0.37548 0.4132 0.294 0.0
H651 H 0.34986 0.44079 0.28381 0.0
H652 H 0.34216 0.18088 0.21982 0.0
H653 H 0.31384 0.20712 0.2166 0.0
H654 H 0.33123 0.22632 0.29261 0.0
H655 H 0.35943 0.20061 0.29584 0.0
Tb656 Tb 0.58023 0.54146 1.0078 0.0
Eu657 Eu 0.58363 0.5626 0.06127 0.0
C658 C 0.63179 0.56716 0.03515 0.0
C659 C 0.5845 0.50758 0.05202 0.0
C660 C 0.56002 0.5222 0.94318 0.0
C661 C 0.53071 0.53811 0.91809 0.0
C662 C 0.54757 0.54003 0.93876 0.0
C663 C 0.55566 0.50261 0.92671 0.0
C664 C 0.53871 0.50059 0.90614 0.0
C665 C 0.52587 0.51822 0.9017 0.0
C666 C 0.57609 0.52277 0.96568 0.0
O667 O 0.54234 0.54297 1.01229 0.0
O668 O 0.546 0.53844 0.05201 0.0
O669 O 0.57649 0.59235 0.03891 0.0
O670 O 0.58291 0.57929 1.00187 0.0
C671 C 0.53216 0.5365 0.03129 0.0
O672 O 0.56636 0.57914 0.08776 0.0
O673 O 0.60293 0.57333 0.09716 0.0
O674 O 0.62055 0.57782 0.04976 0.0
O675 O 0.61949 0.54849 0.02146 0.0
O676 O 0.57936 0.51023 0.0289 0.0
O677 O 0.58972 0.52602 0.06769 0.0
C678 C 0.57982 0.5964 0.01664 0.0
O679 O 0.59095 0.54261 0.97351 0.0
O680 O 0.56541 0.51282 0.98267 0.0
C681 C 0.57694 0.56899 0.12657 0.0
C682 C 0.56838 0.5503 0.17007 0.0
C683 C 0.57081 0.53576 0.15039 0.0
C684 C 0.57492 0.54503 0.12871 0.0
C685 C 0.57315 0.58326 0.14569 0.0
C686 C 0.56881 0.57397 0.16731 0.0
C687 C 0.58414 0.57934 0.10492 0.0
H688 H 0.52139 0.55214 0.91502 0.0
H689 H 0.55059 0.55521 0.95144 0.0
H690 H 0.56495 0.48858 0.93007 0.0
H691 H 0.53516 0.4849 0.8941 0.0
H692 H 0.57053 0.51747 0.15208 0.0
H693 H 0.57749 0.53371 0.11393 0.0
H694 H 0.5745 0.60175 0.14421 0.0
H695 H 0.56738 0.58564 0.18231 0.0
Tb696 Tb 0.82192 0.27881 0.28927 0.0
Eu697 Eu 0.84621 0.3328 0.28419 0.0
C698 C 0.81883 0.31815 0.32814 0.0
C699 C 0.78763 0.31044 0.2666 0.0
C700 C 0.82007 0.21694 0.28596 0.0
C701 C 0.82434 0.17683 0.28626 0.0
C702 C 0.81151 0.19396 0.29139 0.0
C703 C 0.84128 0.22259 0.27505 0.0
C704 C 0.8542 0.20567 0.27023 0.0
C705 C 0.84602 0.1827 0.27598 0.0
C706 C 0.80793 0.23554 0.29245 0.0
O707 O 0.82578 0.2822 0.25187 0.0
O708 O 0.85961 0.31184 0.25649 0.0
O709 O 0.87395 0.31954 0.30925 0.0
O710 O 0.86201 0.28187 0.2934 0.0
C711 C 0.8448 0.29417 0.24361 0.0
O712 O 0.85447 0.36163 0.26179 0.0
O713 O 0.86831 0.36651 0.29966 0.0
O714 O 0.82182 0.33358 0.31238 0.0
O715 O 0.82265 0.29717 0.32399 0.0
O716 O 0.78907 0.29296 0.28005 0.0
O717 O 0.80764 0.32566 0.26337 0.0
C718 C 0.87868 0.29881 0.30603 0.0
O719 O 0.81989 0.25025 0.31017 0.0
O720 O 0.80009 0.24632 0.27467 0.0
C721 C 0.8566 0.39797 0.28205 0.0
C722 C 0.84051 0.4393 0.28986 0.0
C723 C 0.8642 0.44017 0.28425 0.0
C724 C 0.87219 0.41959 0.28038 0.0
C725 C 0.83281 0.39696 0.28709 0.0
C726 C 0.82483 0.41745 0.29099 0.0
C727 C 0.86543 0.37652 0.27984 0.0
H728 H 0.81771 0.1592 0.29084 0.0
H729 H 0.79517 0.18936 0.29984 0.0
H730 H 0.848 0.2402 0.27048 0.0
H731 H 0.87061 0.21054 0.26193 0.0
H732 H 0.87659 0.45674 0.28309 0.0
H733 H 0.89064 0.42055 0.27652 0.0
H734 H 0.82063 0.38032 0.28858 0.0
H735 H 0.80665 0.41617 0.29572 0.0
Tb736 Tb 0.09514 0.54903 0.56139 0.0
Eu737 Eu 0.06606 0.55164 0.51044 0.0
C738 C 0.08863 0.50641 0.52108 0.0
C739 C 0.12161 0.57361 0.5227 0.0
C740 C 0.13238 0.56807 0.61906 0.0
C741 C 0.15284 0.5817 0.65906 0.0
C742 C 0.14382 0.56356 0.6411 0.0
C743 C 0.13141 0.59108 0.61452 0.0
C744 C 0.14017 0.60918 0.63255 0.0
C745 C 0.15026 0.6045 0.6552 0.0
C746 C 0.11958 0.54873 0.60158 0.0
O747 O 0.08135 0.5816 0.56721 0.0
O748 O 0.06979 0.58858 0.52831 0.0
O749 O 0.03945 0.54759 0.53683 0.0
O750 O 0.0596 0.52507 0.55895 0.0
C751 C 0.07442 0.59569 0.55147 0.0
O752 O 0.06307 0.56422 0.47483 0.0
O753 O 1.03345 0.53805 0.48455 0.0
O754 O 0.06973 0.51357 0.51072 0.0
O755 O 0.10337 0.52 0.53885 0.0
O756 O 0.11675 0.57658 0.54444 0.0
O757 O 0.10615 0.55877 0.50706 0.0
C758 C 0.0393 0.53142 0.55168 0.0
O759 O 0.09585 0.54587 0.59816 0.0
O760 O 0.12853 0.5478 0.58148 0.0
C761 C 0.04723 0.53058 0.44861 0.0
C762 C 0.05237 0.49398 0.41687 0.0
C763 C 1.03214 0.50436 0.41278 0.0
C764 C 1.02951 0.52247 0.42867 0.0
C765 C 0.06734 0.5202 0.45272 0.0
C766 C 0.06981 0.502 0.43713 0.0
C767 C 0.04383 0.54759 0.46709 0.0
H768 H 0.16019 0.57757 0.6765 0.0
H769 H 0.14471 0.54589 0.6448 0.0
H770 H 0.12284 0.59486 0.59744 0.0
H771 H 0.13799 0.62659 0.62919 0.0
H772 H 1.01859 0.49879 0.39709 0.0
H773 H 1.01366 0.52999 0.4255 0.0
H774 H 0.08104 0.52595 0.46826 0.0
H775 H 0.0854 0.49421 0.44095 0.0
Tb776 Tb 0.80299 0.7971 0.27556 0.0
Eu777 Eu 0.85858 0.80235 0.30096 0.0
C778 C 0.84104 0.841 0.27149 0.0
C779 C 0.84141 0.78086 0.24487 0.0
C780 C 0.73672 0.79441 0.26626 0.0
C781 C 0.69362 0.79439 0.25962 0.0
C782 C 0.71561 0.79485 0.25069 0.0
C783 C 0.73579 0.79354 0.29085 0.0
C784 C 0.71384 0.79308 0.2998 0.0
C785 C 0.69252 0.79348 0.28427 0.0
C786 C 0.7598 0.79552 0.2569 0.0
O787 O 0.80028 0.77054 0.30063 0.0
O788 O 0.83969 0.76568 0.30582 0.0
O789 O 0.83804 0.80762 0.3323 0.0
O790 O 0.80608 0.81847 0.31028 0.0
C791 C 0.81644 0.75845 0.30753 0.0
O792 O 0.89257 0.79035 0.30665 0.0
O793 O 0.8905 0.82337 0.32396 0.0
O794 O 0.85288 0.83764 0.29181 0.0
O795 O 0.82581 0.8237 0.25869 0.0
O796 O 0.81845 0.77746 0.24899 0.0
O797 O 0.85924 0.79308 0.26101 0.0
C798 C 0.81924 0.8176 0.33129 0.0
O799 O 0.77619 0.81483 0.26316 0.0
O800 O 0.76905 0.77715 0.25905 0.0
C801 C 0.9267 0.82146 0.30905 0.0
C802 C 0.96833 0.84436 0.29037 0.0
C803 C 0.97021 0.83852 0.31421 0.0
C804 C 0.94948 0.82707 0.32348 0.0
C805 C 0.9247 0.82765 0.28542 0.0
C806 C 0.94534 0.83894 0.27614 0.0
C807 C 0.90477 0.80981 0.31856 0.0
H808 H 0.67742 0.79443 0.24722 0.0
H809 H 0.71615 0.79557 0.23165 0.0
H810 H 0.75207 0.79337 0.3031 0.0
H811 H 0.71362 0.79267 0.3189 0.0
H812 H 0.98775 0.84236 0.3255 0.0
H813 H 0.95122 0.82255 0.34183 0.0
H814 H 0.90714 0.82372 0.27415 0.0
H815 H 0.94329 0.84354 0.25783 0.0
Tb816 Tb 0.86999 0.31582 0.79078 0.0
Eu817 Eu 0.81314 0.28267 0.77968 0.0
C818 C 0.82455 0.33745 0.79624 0.0
C819 C 0.84511 0.29075 0.83209 0.0
C820 C 0.92266 0.36693 0.79705 0.0
C821 C 0.91768 0.40693 0.80022 0.0
C822 C 0.90763 0.38291 0.79849 0.0
C823 C 0.94776 0.37525 0.79694 0.0
C824 C 0.95782 0.39927 0.79854 0.0
C825 C 0.94295 0.41546 0.80041 0.0
C826 C 0.91254 0.34169 0.79689 0.0
O827 O 0.87226 0.2806 0.77793 0.0
O828 O 0.83759 0.25878 0.7895 0.0
O829 O 0.82768 0.29015 0.74505 0.0
O830 O 0.85146 0.32596 0.75842 0.0
C831 C 0.85999 0.26094 0.78476 0.0
O832 O 0.78717 0.25438 0.75771 0.0
O833 O 0.77476 0.27424 0.78524 0.0
O834 O 0.81011 0.32002 0.78234 0.0
O835 O 0.84744 0.33782 0.80423 0.0
O836 O 0.86524 0.29759 0.82263 0.0
O837 O 0.82315 0.28728 0.81972 0.0
C838 C 0.83861 0.31116 0.74099 0.0
O839 O 0.89993 0.33549 0.81414 0.0
O840 O 0.90182 0.33071 0.77637 0.0
C841 C 0.75343 0.23494 0.77519 0.0
C842 C 0.72254 0.1927 0.78389 0.0
C843 C 0.74811 0.19594 0.78878 0.0
C844 C 0.76345 0.21693 0.78452 0.0
C845 C 0.72802 0.23191 0.77065 0.0
C846 C 0.71271 0.21103 0.77495 0.0
C847 C 0.76895 0.25658 0.76901 0.0
H848 H 0.90567 0.4188 0.80192 0.0
H849 H 0.88818 0.37682 0.79868 0.0
H850 H 0.95963 0.36316 0.79583 0.0
H851 H 0.97726 0.40513 0.79818 0.0
H852 H 0.75625 0.18226 0.79588 0.0
H853 H 0.78308 0.219 0.78821 0.0
H854 H 0.71998 0.24558 0.76334 0.0
H855 H 0.69315 0.20902 0.77062 0.0
Tb856 Tb 0.84508 0.82696 0.79799 0.0
Eu857 Eu 0.82245 0.77636 0.7724 0.0
C858 C 0.84786 0.78236 0.82775 0.0
C859 C 0.87946 0.80208 0.76938 0.0
C860 C 0.85188 0.88962 0.81209 0.0
C861 C 0.83589 0.9219 0.82694 0.0
C862 C 0.84822 0.90405 0.83122 0.0
C863 C 0.84429 0.8941 0.78853 0.0
C864 C 0.83212 0.912 0.78425 0.0
C865 C 0.82705 0.92557 0.80342 0.0
C866 C 0.86057 0.8683 0.81688 0.0
O867 O 0.83667 0.83362 0.75986 0.0
O868 O 0.80758 0.80057 0.74679 0.0
O869 O 0.79303 0.78301 0.79498 0.0
O870 O 0.80503 0.8227 0.79797 0.0
C871 C 0.81943 0.82169 0.74312 0.0
O872 O 0.8106 0.75261 0.73993 0.0
O873 O 0.80897 0.7389 0.77439 0.0
O874 O 0.84498 0.77014 0.80694 0.0
O875 O 0.8463 0.80442 0.82827 0.0
O876 O 0.87805 0.81609 0.78808 0.0
O877 O 0.85978 0.78678 0.75922 0.0
C878 C 0.78904 0.80358 0.80151 0.0
O879 O 0.84536 0.85237 0.82578 0.0
O880 O 0.8701 0.85928 0.79991 0.0
C881 C 0.82644 0.71911 0.74654 0.0
C882 C 0.86542 0.69604 0.748 0.0
C883 C 0.86666 0.71697 0.73697 0.0
C884 C 0.84743 0.72835 0.73622 0.0
C885 C 0.82436 0.69738 0.75604 0.0
C886 C 0.84365 0.6859 0.75671 0.0
C887 C 0.80955 0.73411 0.75173 0.0
H888 H 0.83205 0.93188 0.84211 0.0
H889 H 0.85377 0.90074 0.84951 0.0
H890 H 0.84677 0.88316 0.77341 0.0
H891 H 0.82585 0.91463 0.76593 0.0
H892 H 0.88315 0.72547 0.73033 0.0
H893 H 0.84979 0.74518 0.72893 0.0
H894 H 0.80844 0.68997 0.76423 0.0
H895 H 0.8419 0.66956 0.76494 0.0
Tb896 Tb 0.56726 0.54756 0.54908 0.0
Eu897 Eu 0.61925 0.57482 0.5828 0.0
C898 C 0.61706 0.5452 0.53235 0.0
C899 C 0.59632 0.52073 0.58256 0.0
C900 C 0.50508 0.54185 0.52002 0.0
C901 C 0.46402 0.5408 0.50079 0.0
C902 C 0.4833 0.52966 0.50621 0.0
C903 C 0.50744 0.56522 0.52827 0.0
C904 C 0.48828 0.57631 0.52297 0.0
C905 C 0.4663 0.56426 0.50921 0.0
C906 C 0.52533 0.53046 0.52645 0.0
O907 O 0.56063 0.57505 0.57252 0.0
O908 O 0.5889 0.57522 0.60498 0.0
O909 O 0.6059 0.60336 0.56437 0.0
O910 O 0.58041 0.57973 0.5331 0.0
C911 C 0.56739 0.57798 0.59565 0.0
O912 O 0.64517 0.57399 0.61469 0.0
O913 O 0.65406 0.60043 0.59013 0.0
O914 O 0.62704 0.56442 0.54621 0.0
O915 O 0.59475 0.53337 0.53341 0.0
O916 O 0.57462 0.52476 0.57662 0.0
O917 O 0.61607 0.53641 0.58092 0.0
C918 C 0.59253 0.60032 0.54322 0.0
O919 O 0.54466 0.53748 0.5161 0.0
O920 O 0.5311 0.52947 0.54937 0.0
C921 C 0.68356 0.57876 0.60175 0.0
C922 C 0.71707 0.5517 0.59061 0.0
C923 C 0.71578 0.55871 0.6146 0.0
C924 C 0.69901 0.572 0.62012 0.0
C925 C 0.6854 0.57226 0.57792 0.0
C926 C 0.7016 0.55871 0.57244 0.0
C927 C 0.66262 0.58863 0.60681 0.0
H928 H 0.44722 0.53096 0.49036 0.0
H929 H 0.48116 0.51155 0.49979 0.0
H930 H 0.52412 0.57488 0.53894 0.0
H931 H 0.49085 0.59444 0.52945 0.0
H932 H 0.72746 0.55369 0.62909 0.0
H933 H 0.69758 0.57636 0.63868 0.0
H934 H 0.67349 0.5768 0.56339 0.0
H935 H 0.70124 0.55299 0.55385 0.0
Tb936 Tb 0.06804 0.54027 1.00321 0.0
Eu937 Eu 0.0891 0.56316 0.05707 0.0
C938 C 0.06106 0.51045 0.04571 0.0
C939 C 0.03686 0.57035 0.03127 0.0
C940 C 0.05443 0.49969 0.94907 0.0
C941 C 0.03502 0.46383 0.92463 0.0
C942 C 0.03463 0.4864 0.93326 0.0
C943 C 0.07526 0.49074 0.95507 0.0
C944 C 0.07577 0.46828 0.94624 0.0
C945 C 0.05533 0.45438 0.93162 0.0
C946 C 0.05185 0.52123 0.9617 0.0
O947 O 0.07536 0.57743 1.00044 0.0
O948 O 0.10409 0.59063 0.03329 0.0
O949 O 0.11522 0.53952 0.04927 0.0
O950 O 0.10668 0.53638 1.00833 0.0
C951 C 0.09219 0.59399 1.0129 0.0
O952 O 0.11758 0.58418 0.08405 0.0
O953 O 0.08336 0.56619 0.0944 0.0
O954 O 0.0615 0.52971 0.05857 0.0
O955 O 0.06832 0.51113 0.02476 0.0
O956 O 0.03667 0.55175 0.01672 0.0
O957 O 0.05673 0.57992 0.04631 0.0
C958 C 0.12045 0.53308 0.02811 0.0
O959 O 0.0398 0.51801 0.97992 0.0
O960 O 0.07161 0.53785 0.9667 0.0
C961 C 0.10023 0.60452 0.11154 0.0
C962 C 0.09704 0.65025 0.12536 0.0
C963 C 0.0766 0.63435 0.11291 0.0
C964 C 0.07821 0.61172 0.10594 0.0
C965 C 0.12026 0.61997 0.12511 0.0
C966 C 0.1187 0.64271 0.13195 0.0
C967 C 0.1033 0.5823 0.1006 0.0
H968 H 1.0191 0.45341 0.91328 0.0
H969 H 1.01838 0.49303 0.92857 0.0
H970 H 0.09062 0.50062 0.96752 0.0
H971 H 0.09151 0.46127 0.9521 0.0
H972 H 0.05979 0.63978 0.10735 0.0
H973 H 0.06254 0.60024 0.09521 0.0
H974 H 0.13743 0.61479 0.12946 0.0
H975 H 0.13467 0.65465 0.14171 0.0
H976 H 0.06201 0.19484 0.9572 0.0
H977 H 1.02912 0.21973 0.016 0.0
H978 H 0.05715 0.20382 0.04455 0.0
H979 H 0.06805 0.14282 0.97705 0.0
H980 H 0.09742 0.14258 0.96794 0.0
H981 H 0.07733 0.15813 0.95198 0.0
H982 H 0.10934 0.19675 0.95888 0.0
H983 H 0.13087 0.18194 0.97385 0.0
H984 H 0.12435 0.20733 0.9887 0.0
H985 H 0.08701 0.18198 0.06592 0.0
H986 H 0.11474 0.15604 0.07777 0.0
H987 H 0.12814 0.14775 1.00425 0.0
C988 C 0.0606 0.19706 0.97608 0.0
C989 C 0.04327 0.20839 0.9844 0.0
C990 C 0.04215 0.21092 1.00925 0.0
C991 C 0.05817 0.20218 0.02556 0.0
C992 C 0.075 0.191 0.0166 0.0
C993 C 0.07633 0.18864 0.9924 0.0
C994 C 0.0954 0.17554 0.9869 0.0
C995 C 0.08389 0.15344 0.97 0.0
C996 C 0.11622 0.19134 0.97647 0.0
C997 C 0.10395 0.16984 1.01173 0.0
C998 C 0.09233 0.17915 0.02876 0.0
C999 C 0.09651 0.17496 0.05279 0.0
C1000 C 0.11243 0.16037 0.05939 0.0
C1001 C 0.12371 0.15007 0.04191 0.0
C1002 C 0.11995 0.15556 0.01802 0.0
H1003 H 0.22794 0.88486 0.18445 0.0
H1004 H 0.16719 0.87305 0.22552 0.0
H1005 H 0.19444 0.86589 0.2603 0.0
H1006 H 0.25259 0.8413 0.20229 0.0
H1007 H 0.28435 0.85586 0.20457 0.0
H1008 H 0.2619 0.86546 0.18474 0.0
H1009 H 0.27594 0.90732 0.20576 0.0
H1010 H 0.29879 0.89783 0.22549 0.0
H1011 H 0.27704 0.91178 0.23772 0.0
H1012 H 0.22457 0.84955 0.28591 0.0
H1013 H 0.25782 0.83131 0.30286 0.0
H1014 H 0.30012 0.85716 0.24735 0.0
C1015 C 0.22061 0.88173 0.20106 0.0
C1016 C 0.19544 0.8794 0.2022 0.0
C1017 C 0.18644 0.875 0.22419 0.0
C1018 C 0.20179 0.8709 0.24411 0.0
C1019 C 0.22622 0.87193 0.24197 0.0
C1020 C 0.2358 0.87796 0.22124 0.0
C1021 C 0.26205 0.87561 0.22277 0.0
C1022 C 0.26538 0.85854 0.2024 0.0
C1023 C 0.27948 0.89957 0.22296 0.0
C1024 C 0.26508 0.86576 0.24681 0.0
C1025 C 0.24428 0.86388 0.25772 0.0
C1026 C 0.24137 0.85183 0.27814 0.0
C1027 C 0.26018 0.84142 0.28756 0.0
C1028 C 0.28162 0.84353 0.27673 0.0
C1029 C 0.28426 0.85622 0.25647 0.0
H1030 H 0.52154 0.809 0.40667 0.0
H1031 H 0.49277 0.78744 0.47154 0.0
H1032 H 0.4997 0.82885 0.48695 0.0
H1033 H 0.56831 0.85744 0.43322 0.0
H1034 H 0.56407 0.87559 0.40913 0.0
H1035 H 0.5569 0.84432 0.40325 0.0
H1036 H 0.51292 0.84516 0.38462 0.0
H1037 H 0.51997 0.87645 0.39031 0.0
H1038 H 0.49432 0.85903 0.40176 0.0
H1039 H 0.51182 0.87224 0.496 0.0
H1040 H 0.52453 0.9152 0.49659 0.0
H1041 H 0.54293 0.90836 0.42476 0.0
C1042 C 0.51668 0.813 0.42412 0.0
C1043 C 0.50677 0.79513 0.43805 0.0
C1044 C 0.50033 0.80097 0.46063 0.0
C1045 C 0.5043 0.82437 0.46953 0.0
C1046 C 0.51433 0.84158 0.45542 0.0
C1047 C 0.5201 0.83621 0.43306 0.0
C1048 C 0.53006 0.85798 0.42122 0.0
C1049 C 0.5564 0.85887 0.41644 0.0
C1050 C 0.51331 0.85975 0.39811 0.0
C1051 C 0.52922 0.87648 0.44053 0.0
C1052 C 0.52033 0.86664 0.46021 0.0
C1053 C 0.51861 0.88017 0.48065 0.0
C1054 C 0.52595 0.90444 0.48087 0.0
C1055 C 0.53458 0.91482 0.4607 0.0
C1056 C 0.53621 0.9007 0.44029 0.0
H1057 H 0.61042 0.39377 0.74879 0.0
H1058 H 0.60621 0.32464 0.71508 0.0
H1059 H 0.56524 0.31119 0.72668 0.0
H1060 H 0.57732 0.37409 0.79899 0.0
H1061 H 0.56228 0.39813 0.7986 0.0
H1062 H 0.59222 0.40167 0.78962 0.0
H1063 H 0.57587 0.41494 0.74902 0.0
H1064 H 0.54588 0.41124 0.75777 0.0
H1065 H 0.55003 0.39621 0.73046 0.0
H1066 H 0.52329 0.30638 0.73827 0.0
H1067 H 0.48393 0.31005 0.7506 0.0
H1068 H 0.51606 0.38187 0.77818 0.0
C1069 C 0.60109 0.37569 0.74421 0.0
C1070 C 0.61153 0.36026 0.73103 0.0
C1071 C 0.59862 0.33677 0.72523 0.0
C1072 C 0.57533 0.32896 0.73174 0.0
C1073 C 0.56534 0.34477 0.74424 0.0
C1074 C 0.57789 0.36757 0.75065 0.0
C1075 C 0.5626 0.38131 0.76315 0.0
C1076 C 0.57431 0.38926 0.78913 0.0
C1077 C 0.55835 0.40215 0.74926 0.0
C1078 C 0.53924 0.36285 0.7621 0.0
C1079 C 0.54124 0.34187 0.75128 0.0
C1080 C 0.52163 0.32259 0.74719 0.0
C1081 C 0.49936 0.32483 0.75436 0.0
C1082 C 0.49687 0.3462 0.76555 0.0
C1083 C 0.51724 0.36534 0.76957 0.0
H1084 H 0.07394 0.90633 0.64624 0.0
H1085 H 0.07594 0.85829 0.58595 0.0
H1086 H 0.07933 0.89111 0.55986 0.0
H1087 H 0.0379 0.94185 0.6138 0.0
H1088 H 0.05409 0.96885 0.6305 0.0
H1089 H 0.05192 0.94173 0.64421 0.0
H1090 H 0.09898 0.95018 0.65381 0.0
H1091 H 0.10129 0.97731 0.64008 0.0
H1092 H 0.11725 0.95603 0.62998 0.0
H1093 H 0.08268 0.93091 0.5397 0.0
H1094 H 0.08495 0.97105 0.52818 0.0
H1095 H 0.08074 0.99416 0.60139 0.0
C1096 C 0.07507 0.9025 0.62752 0.0
C1097 C 0.07462 0.87905 0.61851 0.0
C1098 C 0.07618 0.87558 0.59372 0.0
C1099 C 0.07815 0.89436 0.57866 0.0
C1100 C 0.07858 0.91707 0.58821 0.0
C1101 C 0.07703 0.92112 0.61219 0.0
C1102 C 0.07777 0.9471 0.61816 0.0
C1103 C 0.05401 0.95005 0.62721 0.0
C1104 C 0.10015 0.95832 0.63661 0.0
C1105 C 0.08 0.95724 0.5939 0.0
C1106 C 0.08045 0.93957 0.57684 0.0
C1107 C 0.08233 0.94463 0.55313 0.0
C1108 C 0.08367 0.96783 0.54668 0.0
C1109 C 0.08319 0.98656 0.56358 0.0
C1110 C 0.08134 0.98076 0.58771 0.0
H1111 H 0.48976 0.7805 0.89777 0.0
H1112 H 0.54075 0.8025 0.84783 0.0
H1113 H 0.50597 0.8054 0.81755 0.0
H1114 H 0.44029 0.74569 0.85405 0.0
H1115 H 0.41661 0.75409 0.86874 0.0
H1116 H 0.4453 0.75297 0.88595 0.0
H1117 H 0.45075 0.7959 0.90251 0.0
H1118 H 0.42213 0.79718 0.88531 0.0
H1119 H 0.44962 0.81808 0.88194 0.0
H1120 H 0.46487 0.8081 0.79321 0.0
H1121 H 0.42262 0.80892 0.77684 0.0
H1122 H 0.39756 0.7841 0.84214 0.0
C1123 C 0.49378 0.78571 0.88038 0.0
C1124 C 0.51845 0.79117 0.8754 0.0
C1125 C 0.52236 0.79801 0.8523 0.0
C1126 C 0.50257 0.79979 0.83495 0.0
C1127 C 0.47866 0.79456 0.84067 0.0
C1128 C 0.47423 0.78747 0.86285 0.0
C1129 C 0.4469 0.78312 0.86474 0.0
C1130 C 0.43668 0.75744 0.8686 0.0
C1131 C 0.44207 0.79955 0.88482 0.0
C1132 C 0.43648 0.78903 0.84023 0.0
C1133 C 0.45517 0.79567 0.82665 0.0
C1134 C 0.45025 0.80273 0.80374 0.0
C1135 C 0.42598 0.80316 0.79455 0.0
C1136 C 0.40628 0.79641 0.8079 0.0
C1137 C 0.41185 0.78905 0.83113 0.0
H1138 H 0.57206 0.20454 0.14404 0.0
H1139 H 0.56728 0.24652 0.0838 0.0
H1140 H 0.57073 0.21282 0.05686 0.0
H1141 H 0.61671 0.1747 0.12412 0.0
H1142 H 0.60374 0.14746 0.13532 0.0
H1143 H 0.60053 0.17457 0.14962 0.0
H1144 H 0.55295 0.16 0.14315 0.0
H1145 H 0.55701 0.13265 0.13024 0.0
H1146 H 0.5377 0.14867 0.11367 0.0
H1147 H 0.57427 0.17249 0.03592 0.0
H1148 H 0.57843 0.13268 0.02407 0.0
H1149 H 0.58226 0.1169 0.09824 0.0
C1150 C 0.57159 0.20685 0.12514 0.0
C1151 C 0.56912 0.22876 0.11635 0.0
C1152 C 0.56899 0.23037 0.09137 0.0
C1153 C 0.57096 0.2111 0.07584 0.0
C1154 C 0.57331 0.18991 0.08522 0.0
C1155 C 0.57375 0.18784 0.10945 0.0
C1156 C 0.57691 0.16345 0.11535 0.0
C1157 C 0.60089 0.16516 0.13212 0.0
C1158 C 0.55484 0.15041 0.12626 0.0
C1159 C 0.57797 0.1518 0.09072 0.0
C1160 C 0.57581 0.16736 0.07353 0.0
C1161 C 0.576 0.16044 0.04946 0.0
C1162 C 0.57839 0.13749 0.04282 0.0
C1163 C 0.58073 0.12096 0.05993 0.0
C1164 C 0.58057 0.12865 0.08439 0.0
H1165 H 0.16122 0.26378 0.35529 0.0
H1166 H 0.16905 0.33487 0.38516 0.0
H1167 H 0.20679 0.34681 0.36658 0.0
H1168 H 0.22571 0.2634 0.36297 0.0
H1169 H 0.22405 0.24593 0.33534 0.0
H1170 H 0.19766 0.24303 0.35072 0.0
H1171 H 0.17222 0.25182 0.31251 0.0
H1172 H 0.19855 0.25479 0.29703 0.0
H1173 H 0.18277 0.27823 0.29859 0.0
H1174 H 0.24535 0.35092 0.34498 0.0
H1175 H 0.27948 0.34714 0.32302 0.0
H1176 H 0.24721 0.27345 0.30567 0.0
C1177 C 0.17074 0.28194 0.35796 0.0
C1178 C 0.16159 0.29833 0.37201 0.0
C1179 C 0.17514 0.32183 0.3747 0.0
C1180 C 0.1968 0.32878 0.36411 0.0
C1181 C 0.20519 0.31221 0.35052 0.0
C1182 C 0.19246 0.28922 0.34738 0.0
C1183 C 0.20543 0.2748 0.33197 0.0
C1184 C 0.2137 0.25565 0.34609 0.0
C1185 C 0.18874 0.26428 0.30864 0.0
C1186 C 0.22749 0.29314 0.32689 0.0
C1187 C 0.22698 0.31461 0.33788 0.0
C1188 C 0.24564 0.33413 0.33634 0.0
C1189 C 0.26518 0.33177 0.32367 0.0
C1190 C 0.26652 0.31006 0.3121 0.0
C1191 C 0.24697 0.29048 0.31377 0.0
H1192 H 0.99304 1.00309 0.13448 0.0
H1193 H 0.95465 0.05885 0.14178 0.0
H1194 H 0.98247 0.08275 0.11757 0.0
H1195 H 0.04813 0.03804 0.1478 0.0
H1196 H 0.06394 0.02315 0.12842 0.0
H1197 H 0.0373 1.0072 0.13935 0.0
H1198 H 1.01564 0.99316 0.09641 0.0
H1199 H 0.04268 1.00791 0.08504 0.0
H1200 H 1.01349 1.01412 0.07465 0.0
H1201 H 1.01801 0.10217 0.09688 0.0
H1202 H 0.05823 0.11536 0.08277 0.0
H1203 H 0.07496 0.04826 0.09535 0.0
C1204 C 0.98964 0.01987 0.13006 0.0
C1205 C 0.9715 0.02903 0.13965 0.0
C1206 C 0.9683 0.05145 0.13426 0.0
C1207 C 0.98401 0.06511 0.12057 0.0
C1208 C 1.00281 0.05607 0.11275 0.0
C1209 C 1.00557 0.03387 0.11727 0.0
C1210 C 1.02942 0.02954 0.1109 0.0
C1211 C 0.04563 0.02417 0.13293 0.0
C1212 C 1.02504 1.01004 0.09053 0.0
C1213 C 0.04 0.05295 0.10269 0.0
C1214 C 1.02424 0.06789 0.10319 0.0
C1215 C 1.03045 0.09059 0.09641 0.0
C1216 C 0.05329 0.09801 0.0887 0.0
C1217 C 0.06969 0.08296 0.08876 0.0
C1218 C 0.06294 0.06027 0.09584 0.0
H1219 H 0.33059 0.77831 0.46711 0.0
H1220 H 0.34037 0.70772 0.45423 0.0
H1221 H 0.34021 0.71309 0.41141 0.0
H1222 H 0.29096 0.77975 0.41557 0.0
H1223 H 0.30399 0.80917 0.40943 0.0
H1224 H 0.30684 0.80101 0.43968 0.0
H1225 H 0.35395 0.8146 0.44389 0.0
H1226 H 0.35124 0.82333 0.41381 0.0
H1227 H 0.37021 0.8033 0.42217 0.0
H1228 H 0.33122 0.72308 0.37001 0.0
H1229 H 0.32495 0.74072 0.33213 0.0
H1230 H 0.32647 0.80686 0.37114 0.0
C1231 C 0.33333 0.76425 0.45533 0.0
C1232 C 0.33539 0.74258 0.46393 0.0
C1233 C 0.33891 0.72452 0.44806 0.0
C1234 C 0.33866 0.72731 0.42367 0.0
C1235 C 0.33554 0.74848 0.41559 0.0
C1236 C 0.33384 0.76697 0.43094 0.0
C1237 C 0.33086 0.7879 0.41735 0.0
C1238 C 0.30673 0.79485 0.42071 0.0
C1239 C 0.35288 0.8085 0.42474 0.0
C1240 C 0.33032 0.77792 0.39194 0.0
C1241 C 0.33258 0.75501 0.39143 0.0
C1242 C 0.33024 0.74124 0.37014 0.0
C1243 C 0.32656 0.75145 0.34869 0.0
C1244 C 0.32593 0.77538 0.34867 0.0
C1245 C 0.32748 0.78869 0.37062 0.0
H1246 H 0.55501 0.98074 0.68423 0.0
H1247 H 0.62092 0.95552 0.67921 0.0
H1248 H 0.61238 0.95359 0.63511 0.0
H1249 H 0.51815 0.95152 0.62449 0.0
H1250 H 0.50645 0.97732 0.61995 0.0
H1251 H 0.51259 0.96865 0.64978 0.0
H1252 H 0.54059 1.00955 0.66289 0.0
H1253 H 0.53461 1.01823 0.63334 0.0
H1254 H 0.56569 0.02019 0.64671 0.0
H1255 H 0.60218 0.96286 0.59329 0.0
H1256 H 0.59457 0.9863 0.5595 0.0
H1257 H 0.53759 1.00865 0.5927 0.0
C1258 C 0.56719 0.97391 0.6739 0.0
C1259 C 0.5886 0.96824 0.68511 0.0
C1260 C 0.60432 0.95983 0.67095 0.0
C1261 C 0.59947 0.9585 0.64588 0.0
C1262 C 0.57883 0.96553 0.63538 0.0
C1263 C 0.5629 0.97303 0.64907 0.0
C1264 C 0.54525 0.98447 0.63443 0.0
C1265 C 0.51906 0.96959 0.63201 0.0
C1266 C 0.54667 1.00958 0.64496 0.0
C1267 C 0.55508 0.98416 0.61084 0.0
C1268 C 0.57358 0.97207 0.6113 0.0
C1269 C 0.58731 0.97179 0.59249 0.0
C1270 C 0.58285 0.98511 0.57336 0.0
C1271 C 0.56538 0.99901 0.57372 0.0
C1272 C 0.55069 0.99774 0.59206 0.0
H1273 H 0.34483 0.37317 0.96554 0.0
H1274 H 0.27216 0.38682 0.9573 0.0
H1275 H 0.26618 0.37181 0.91447 0.0
H1276 H 0.35948 0.39146 0.90803 0.0
H1277 H 0.37688 0.36972 0.90336 0.0
H1278 H 0.37484 0.38052 0.93331 0.0
H1279 H 0.35842 0.33833 0.9437 0.0
H1280 H 0.36038 0.32739 0.91376 0.0
H1281 H 0.33179 0.32036 0.92556 0.0
H1282 H 0.26797 0.35305 0.87141 0.0
H1283 H 0.27839 0.33691 0.83362 0.0
H1284 H 0.35126 0.33856 0.86895 0.0
C1285 C 0.32751 0.37293 0.95485 0.0
C1286 C 0.30882 0.3811 0.96537 0.0
C1287 C 0.28677 0.3807 0.95016 0.0
C1288 C 0.28322 0.37209 0.92565 0.0
C1289 C 0.30201 0.36415 0.91601 0.0
C1290 C 0.32388 0.36483 0.93022 0.0
C1291 C 0.34165 0.35623 0.91548 0.0
C1292 C 0.36457 0.37564 0.91502 0.0
C1293 C 0.34846 0.33428 0.92521 0.0
C1294 C 0.3265 0.35048 0.89069 0.0
C1295 C 0.30352 0.35484 0.89141 0.0
C1296 C 0.28604 0.34992 0.87086 0.0
C1297 C 0.29215 0.34062 0.84929 0.0
C1298 C 0.31579 0.33654 0.84776 0.0
C1299 C 0.33311 0.34168 0.86905 0.0
H1300 H 1.00252 0.04032 0.26759 0.0
H1301 H 1.0146 0.97212 0.24663 0.0
H1302 H 0.04462 0.97527 0.28293 0.0
H1303 H 0.0667 0.06663 0.29702 0.0
H1304 H 0.05586 0.0823 0.32017 0.0
H1305 H 0.0388 0.07657 0.29051 0.0
H1306 H 1.00019 0.05658 0.30813 0.0
H1307 H 1.01706 0.06223 0.33772 0.0
H1308 H 1.0017 0.0328 0.32659 0.0
H1309 H 0.06773 0.98288 0.32419 0.0
H1310 H 0.08105 0.99372 0.36721 0.0
H1311 H 0.05565 0.05789 0.36074 0.0
C1312 C 1.01192 0.02627 0.27029 0.0
C1313 C 1.00622 1.00598 0.25425 0.0
C1314 C 1.01871 0.98787 0.25861 0.0
C1315 C 0.03591 0.98957 0.27913 0.0
C1316 C 0.04065 1.0096 0.29489 0.0
C1317 C 1.02915 0.02772 0.29059 0.0
C1318 C 0.03539 0.04619 0.31148 0.0
C1319 C 0.05007 0.06929 0.30436 0.0
C1320 C 1.01222 0.04962 0.32157 0.0
C1321 C 0.0511 0.03501 0.32876 0.0
C1322 C 0.05435 1.01415 0.3187 0.0
C1323 C 0.0659 0.99948 0.33208 0.0
C1324 C 0.07355 1.00588 0.35655 0.0
C1325 C 0.0695 0.02674 0.36742 0.0
C1326 C 0.05902 0.04185 0.35301 0.0
H1327 H 0.33608 0.77381 0.59742 0.0
H1328 H 0.35559 0.70675 0.60242 0.0
H1329 H 0.36362 0.71408 0.6465 0.0
H1330 H 0.38057 0.80537 0.64931 0.0
H1331 H 0.35915 0.82189 0.65782 0.0
H1332 H 0.35864 0.81271 0.62678 0.0
H1333 H 0.31281 0.79251 0.62413 0.0
H1334 H 0.31324 0.80131 0.65516 0.0
H1335 H 0.30351 0.77089 0.64449 0.0
H1336 H 0.36311 0.72625 0.69015 0.0
H1337 H 0.35758 0.74378 0.72937 0.0
H1338 H 0.33943 0.80305 0.69495 0.0
C1339 C 0.34267 0.76092 0.60772 0.0
C1340 C 0.34521 0.73972 0.59652 0.0
C1341 C 0.35372 0.72321 0.61063 0.0
C1342 C 0.35826 0.7272 0.63568 0.0
C1343 C 0.35459 0.74792 0.64621 0.0
C1344 C 0.34744 0.76469 0.6326 0.0
C1345 C 0.34315 0.78476 0.64809 0.0
C1346 C 0.36148 0.80753 0.64534 0.0
C1347 C 0.3166 0.7875 0.64264 0.0
C1348 C 0.3481 0.77629 0.67254 0.0
C1349 C 0.35481 0.75509 0.6712 0.0
C1350 C 0.35838 0.74309 0.69146 0.0
C1351 C 0.35506 0.75309 0.71361 0.0
C1352 C 0.34827 0.77486 0.71524 0.0
C1353 C 0.34502 0.78658 0.69441 0.0
H1354 H 0.62733 0.95486 0.82723 0.0
H1355 H 0.55467 0.92404 0.79141 0.0
H1356 H 0.54102 0.91455 0.82985 0.0
H1357 H 0.61939 0.91996 0.88814 0.0
H1358 H 0.63701 0.94634 0.905 0.0
H1359 H 0.64512 0.93722 0.87668 0.0
H1360 H 0.64298 0.97755 0.86199 0.0
H1361 H 0.63468 0.98656 0.88974 0.0
H1362 H 0.61509 0.98772 0.8623 0.0
H1363 H 0.53058 0.92557 0.86787 0.0
H1364 H 0.52552 0.95324 0.90003 0.0
H1365 H 0.60386 0.98022 0.91278 0.0
C1366 C 0.60911 0.94455 0.82764 0.0
C1367 C 0.59199 0.94026 0.80674 0.0
C1368 C 0.56802 0.9274 0.80741 0.0
C1369 C 0.56017 0.92187 0.82927 0.0
C1370 C 0.57647 0.92951 0.85024 0.0
C1371 C 0.60089 0.9399 0.84962 0.0
C1372 C 0.61288 0.95229 0.87374 0.0
C1373 C 0.62957 0.9381 0.88665 0.0
C1374 C 0.62714 0.9775 0.87177 0.0
C1375 C 0.59047 0.95159 0.886 0.0
C1376 C 0.57002 0.93681 0.87306 0.0
C1377 C 0.54657 0.93659 0.87852 0.0
C1378 C 0.54379 0.95271 0.89654 0.0
C1379 C 0.56431 0.96912 0.90865 0.0
C1380 C 0.58791 0.96756 0.90416 0.0
H1381 H 0.32336 0.35407 0.10199 0.0
H1382 H 0.29556 0.41567 0.11671 0.0
H1383 H 0.29365 0.40569 0.15865 0.0
H1384 H 0.28576 0.31625 0.13917 0.0
H1385 H 0.30946 0.30127 0.14864 0.0
H1386 H 0.30821 0.31316 0.11994 0.0
H1387 H 0.35272 0.33675 0.13139 0.0
H1388 H 0.35407 0.32502 0.16015 0.0
H1389 H 0.36076 0.35617 0.15839 0.0
H1390 H 0.29792 0.38967 0.20136 0.0
H1391 H 0.30414 0.36839 0.23736 0.0
H1392 H 0.3266 0.31556 0.19459 0.0
C1393 C 0.31657 0.36544 0.11387 0.0
C1394 C 0.30952 0.38585 0.10543 0.0
C1395 C 0.30088 0.39994 0.12212 0.0
C1396 C 0.29988 0.39439 0.14623 0.0
C1397 C 0.30726 0.37437 0.15389 0.0
C1398 C 0.31511 0.35993 0.13795 0.0
C1399 C 0.32183 0.33928 0.15046 0.0
C1400 C 0.30534 0.31612 0.13886 0.0
C1401 C 0.34895 0.33931 0.15007 0.0
C1402 C 0.31681 0.3443 0.17601 0.0
C1403 C 0.30864 0.36478 0.17771 0.0
C1404 C 0.30397 0.37349 0.19985 0.0
C1405 C 0.30759 0.36118 0.22042 0.0
C1406 C 0.3155 0.33984 0.21927 0.0
C1407 C 0.32005 0.33144 0.19641 0.0
H1408 H 0.32401 0.96499 0.08399 0.0
H1409 H 0.27315 0.92147 0.02687 0.0
H1410 H 0.24241 0.94442 0.03332 0.0
H1411 H 0.28028 0.97167 0.12271 0.0
H1412 H 0.29461 1.00163 0.13271 0.0
H1413 H 0.31276 0.98202 0.12341 0.0
H1414 H 0.32888 1.0102 0.09247 0.0
H1415 H 0.31087 0.02996 0.10174 0.0
H1416 H 0.30741 0.01923 0.07073 0.0
H1417 H 0.21699 0.97135 0.04664 0.0
H1418 H 0.19912 1.00174 0.06457 0.0
H1419 H 0.26671 0.02796 0.11278 0.0
C1420 C 0.30645 0.96031 0.07276 0.0
C1421 C 0.30095 0.94141 0.05495 0.0
C1422 C 0.27777 0.9359 0.04061 0.0
C1423 C 0.26018 0.94879 0.04417 0.0
C1424 C 0.26614 0.96717 0.06204 0.0
C1425 C 0.28875 0.97304 0.07599 0.0
C1426 C 0.29057 0.99365 0.09392 0.0
C1427 C 0.2948 0.98682 0.11971 0.0
C1428 C 0.31062 1.01449 0.08944 0.0
C1429 C 0.26539 0.99841 0.08793 0.0
C1430 C 0.25156 0.98287 0.06957 0.0
C1431 C 0.22762 0.98361 0.06104 0.0
C1432 C 0.21758 1.00081 0.07147 0.0
C1433 C 0.23149 1.01707 0.09018 0.0
C1434 C 0.25571 1.0158 0.09846 0.0
H1435 H 0.75552 0.66661 0.04143 0.0
H1436 H 0.79179 0.61381 0.01683 0.0
H1437 H 0.75333 0.58372 0.0161 0.0
H1438 H 0.72015 0.63084 0.08056 0.0
H1439 H 0.69404 0.64357 0.07425 0.0
H1440 H 0.72426 0.6605 0.07259 0.0
H1441 H 0.71038 0.66843 0.02905 0.0
H1442 H 0.68014 0.65148 0.03056 0.0
H1443 H 0.69685 0.64417 1.00718 0.0
H1444 H 0.70867 0.55954 0.01594 0.0
H1445 H 0.66506 0.54383 0.01941 0.0
H1446 H 0.65924 0.61234 0.04676 0.0
C1447 C 0.75552 0.64871 0.03586 0.0
C1448 C 0.77694 0.64276 0.02897 0.0
C1449 C 0.77587 0.61898 0.02217 0.0
C1450 C 0.75397 0.60175 0.02166 0.0
C1451 C 0.73319 0.60836 0.02836 0.0
C1452 C 0.73402 0.63133 0.03564 0.0
C1453 C 0.70953 0.6341 0.04248 0.0
C1454 C 0.71216 0.64276 0.06905 0.0
C1455 C 0.69859 0.65052 0.02636 0.0
C1456 C 0.69451 0.60916 0.03772 0.0
C1457 C 0.70836 0.59454 0.02936 0.0
C1458 C 0.69793 0.57091 0.02275 0.0
C1459 C 0.67301 0.5621 0.02476 0.0
C1460 C 0.65852 0.57664 0.03367 0.0
C1461 C 0.66972 0.60053 0.04029 0.0
H1462 H 0.74068 0.51117 0.31025 0.0
H1463 H 0.79658 0.55891 0.35986 0.0
H1464 H 0.82773 0.53911 0.34729 0.0
H1465 H 0.76215 0.46138 0.32124 0.0
H1466 H 0.75493 0.44843 0.29083 0.0
H1467 H 0.7376 0.46818 0.30141 0.0
H1468 H 0.74782 0.49411 0.26684 0.0
H1469 H 0.76523 0.47439 0.25614 0.0
H1470 H 0.77928 0.50494 0.26298 0.0
H1471 H 0.85191 0.51184 0.33251 0.0
H1472 H 0.86703 0.47822 0.3176 0.0
H1473 H 0.79561 0.44879 0.27699 0.0
C1474 C 0.75953 0.51773 0.31816 0.0
C1475 C 0.76622 0.53659 0.33599 0.0
C1476 C 0.79104 0.54447 0.34616 0.0
C1477 C 0.8089 0.53343 0.33904 0.0
C1478 C 0.80164 0.51468 0.32164 0.0
C1479 C 0.77757 0.50691 0.31129 0.0
C1480 C 0.77424 0.48524 0.29445 0.0
C1481 C 0.75617 0.4646 0.30248 0.0
C1482 C 0.76617 0.48996 0.26857 0.0
C1483 C 0.80003 0.48156 0.29762 0.0
C1484 C 0.81565 0.49892 0.31307 0.0
C1485 C 0.83999 0.49836 0.32004 0.0
C1486 C 0.84844 0.47925 0.31139 0.0
C1487 C 0.83251 0.46094 0.29607 0.0
C1488 C 0.8082 0.46251 0.2887 0.0
H1489 H 0.93765 0.41605 0.55497 0.0
H1490 H 0.88525 0.46028 0.55402 0.0
H1491 H 0.91893 0.49514 0.55857 0.0
H1492 H 0.98559 0.45446 0.59867 0.0
H1493 H 1.00998 0.44818 0.58358 0.0
H1494 H 0.98192 0.42647 0.5823 0.0
H1495 H 0.97691 0.42361 0.53595 0.0
H1496 H 1.00494 0.4452 0.53711 0.0
H1497 H 0.97717 0.44969 0.52066 0.0
H1498 H 0.9573 0.52492 0.55882 0.0
H1499 H 0.99857 0.54791 0.5555 0.0
H1500 H 1.02661 0.48498 0.55811 0.0
C1501 C 0.93328 0.43306 0.55605 0.0
C1502 C 0.90878 0.43538 0.55414 0.0
C1503 C 0.90385 0.45799 0.55546 0.0
C1504 C 0.92286 0.47795 0.55813 0.0
C1505 C 0.94674 0.47505 0.55969 0.0
C1506 C 0.95208 0.45322 0.55884 0.0
C1507 C 0.97929 0.45505 0.55967 0.0
C1508 C 0.98981 0.44547 0.58241 0.0
C1509 C 0.98489 0.44266 0.537 0.0
C1510 C 0.98827 0.48127 0.56044 0.0
C1511 C 0.96917 0.49246 0.56056 0.0
C1512 C 0.9725 0.51646 0.55921 0.0
C1513 C 0.99594 0.52934 0.55729 0.0
C1514 C 1.01569 0.51821 0.55695 0.0
C1515 C 1.01189 0.49397 0.55903 0.0
H1516 H 0.45334 0.13181 0.32794 0.0
H1517 H 0.49772 0.15213 0.27199 0.0
H1518 H 0.46304 0.16377 0.24889 0.0
H1519 H 0.39479 0.11004 0.28851 0.0
H1520 H 0.37751 0.12158 0.30907 0.0
H1521 H 0.40498 0.11255 0.32025 0.0
H1522 H 0.42275 0.1535 0.34259 0.0
H1523 H 0.39532 0.16257 0.3316 0.0
H1524 H 0.42458 0.179 0.3261 0.0
H1525 H 0.42497 0.1759 0.23323 0.0
H1526 H 0.38691 0.19002 0.22731 0.0
H1527 H 0.3668 0.16166 0.29308 0.0
C1528 C 0.45564 0.1384 0.31068 0.0
C1529 C 0.47821 0.14098 0.30174 0.0
C1530 C 0.48061 0.15001 0.27923 0.0
C1531 C 0.46097 0.15653 0.26588 0.0
C1532 C 0.43902 0.1539 0.27525 0.0
C1533 C 0.43624 0.14514 0.29715 0.0
C1534 C 0.41132 0.14579 0.30394 0.0
C1535 C 0.39626 0.12101 0.30553 0.0
C1536 C 0.41365 0.16114 0.32744 0.0
C1537 C 0.40083 0.15687 0.28273 0.0
C1538 C 0.41696 0.16105 0.26621 0.0
C1539 C 0.41198 0.17238 0.24582 0.0
C1540 C 0.3902 0.18018 0.24252 0.0
C1541 C 0.37374 0.17677 0.25961 0.0
C1542 C 0.37897 0.16446 0.27966 0.0
H1543 H 0.45885 0.17299 0.54861 0.0
H1544 H 0.39464 0.11975 0.5193 0.0
H1545 H 0.42076 0.09113 0.5163 0.0
H1546 H 0.50062 0.15413 0.51198 0.0
H1547 H 0.5264 0.16061 0.53536 0.0
H1548 H 0.50288 0.17694 0.53533 0.0
H1549 H 0.49636 0.16608 0.57804 0.0
H1550 H 0.51997 0.14983 0.57837 0.0
H1551 H 0.48989 0.13579 0.58409 0.0
H1552 H 0.45512 0.06779 0.51586 0.0
H1553 H 0.49256 0.05242 0.51886 0.0
H1554 H 0.53525 0.12023 0.54939 0.0
C1555 C 0.45011 0.1553 0.54156 0.0
C1556 C 0.42419 0.14896 0.5342 0.0
C1557 C 0.4141 0.12543 0.52512 0.0
C1558 C 0.42897 0.10893 0.52333 0.0
C1559 C 0.45429 0.11583 0.5307 0.0
C1560 C 0.46475 0.13854 0.53971 0.0
C1561 C 0.49245 0.14154 0.54645 0.0
C1562 C 0.50642 0.15937 0.53139 0.0
C1563 C 0.50012 0.14874 0.57334 0.0
C1564 C 0.49606 0.117 0.54006 0.0
C1565 C 0.47378 0.10248 0.53083 0.0
C1566 C 0.47249 0.07916 0.5232 0.0
C1567 C 0.49411 0.0705 0.52499 0.0
C1568 C 0.51736 0.08475 0.53457 0.0
C1569 C 0.51803 0.1085 0.54222 0.0
H1570 H 0.71671 0.65905 0.35032 0.0
H1571 H 0.76727 0.61342 0.34664 0.0
H1572 H 0.799 0.64662 0.33804 0.0
H1573 H 0.73323 0.68997 0.30177 0.0
H1574 H 0.72988 0.71767 0.31448 0.0
H1575 H 0.71218 0.69101 0.32305 0.0
H1576 H 0.7291 0.70394 0.36765 0.0
H1577 H 0.74687 0.7307 0.35918 0.0
H1578 H 0.76168 0.71184 0.37683 0.0
H1579 H 0.82438 0.68431 0.32752 0.0
H1580 H 0.8406 0.72306 0.31387 0.0
H1581 H 0.77273 0.74318 0.32341 0.0
C1582 C 0.73459 0.65611 0.34813 0.0
C1583 C 0.7396 0.63373 0.34928 0.0
C1584 C 0.76307 0.63048 0.34586 0.0
C1585 C 0.78124 0.64923 0.34109 0.0
C1586 C 0.77559 0.67104 0.33976 0.0
C1587 C 0.75281 0.67454 0.34314 0.0
C1588 C 0.75073 0.69919 0.33897 0.0
C1589 C 0.7303 0.69946 0.31834 0.0
C1590 C 0.74687 0.71218 0.36204 0.0
C1591 C 0.7757 0.70886 0.33219 0.0
C1592 C 0.78994 0.69252 0.33312 0.0
C1593 C 0.81347 0.69732 0.32689 0.0
C1594 C 0.82252 0.71935 0.31918 0.0
C1595 C 0.80789 0.73605 0.31751 0.0
C1596 C 0.78434 0.73075 0.32443 0.0
H1597 H 0.04578 0.53243 0.8405 0.0
H1598 H 0.99757 0.57009 0.8016 0.0
H1599 H 0.96632 0.53338 0.79155 0.0
H1600 H 1.03105 0.48114 0.80076 0.0
H1601 H 1.0321 0.46138 0.82389 0.0
H1602 H 0.05036 0.49074 0.82894 0.0
H1603 H 1.03066 0.49748 0.86697 0.0
H1604 H 1.01243 0.46809 0.8621 0.0
H1605 H 0.99787 0.49229 0.86484 0.0
H1606 H 0.94116 0.49224 0.78385 0.0
H1607 H 0.92336 0.44992 0.78023 0.0
H1608 H 0.9872 0.4392 0.8255 0.0
C1609 C 1.0286 0.53301 0.82998 0.0
C1610 C 1.0242 0.55419 0.82179 0.0
C1611 C 1.00141 0.55413 0.80812 0.0
C1612 C 0.98352 0.53335 0.8023 0.0
C1613 C 0.98856 0.51277 0.81046 0.0
C1614 C 1.01045 0.51245 0.82419 0.0
C1615 C 1.01135 0.48794 0.8305 0.0
C1616 C 1.03247 0.47983 0.82041 0.0
C1617 C 1.01317 0.48637 0.85771 0.0
C1618 C 0.98675 0.47446 0.81774 0.0
C1619 C 0.97387 0.48912 0.80637 0.0
C1620 C 0.95096 0.48062 0.79292 0.0
C1621 C 0.94094 0.45652 0.79107 0.0
C1622 C 0.95375 0.44109 0.80264 0.0
C1623 C 0.97697 0.45037 0.8162 0.0
H1624 H 0.11266 0.93259 0.12807 0.0
H1625 H 0.13177 0.89769 0.06599 0.0
H1626 H 0.12121 0.92834 0.04124 0.0
H1627 H 0.06294 0.95719 0.09652 0.0
H1628 H 0.07246 0.98418 0.11529 0.0
H1629 H 0.07668 0.9573 0.12707 0.0
H1630 H 0.12303 0.97531 0.1391 0.0
H1631 H 0.11879 1.00222 0.12769 0.0
H1632 H 0.14079 0.98776 0.11673 0.0
H1633 H 0.11321 0.96471 0.02445 0.0
H1634 H 0.11304 1.00601 0.01823 0.0
H1635 H 0.10155 1.01791 0.09172 0.0
C1636 C 0.11394 0.93107 0.10911 0.0
C1637 C 0.1227 0.91272 0.0988 0.0
C1638 C 0.12496 0.91164 0.07414 0.0
C1639 C 0.11879 0.92881 0.05993 0.0
C1640 C 0.11055 0.94694 0.07073 0.0
C1641 C 0.10832 0.94828 0.09483 0.0
C1642 C 0.10259 0.97117 0.10289 0.0
C1643 C 0.07715 0.96721 0.11091 0.0
C1644 C 0.12249 0.98491 0.12276 0.0
C1645 C 0.10295 0.9829 0.07982 0.0
C1646 C 0.10679 0.96838 0.06126 0.0
C1647 C 0.1097 0.97607 0.03868 0.0
C1648 C 0.10948 0.99942 0.03525 0.0
C1649 C 0.10678 1.01462 0.05442 0.0
C1650 C 0.10295 1.00622 0.07673 0.0
H1651 H 0.976 0.23554 0.85533 0.0
H1652 H 0.92618 0.1916 0.89492 0.0
H1653 H 0.89264 0.18928 0.86164 0.0
H1654 H 0.93847 0.27031 0.84139 0.0
H1655 H 0.94709 0.27667 0.81243 0.0
H1656 H 0.96831 0.26834 0.83464 0.0
H1657 H 0.97224 0.23435 0.80524 0.0
H1658 H 0.95083 0.24264 0.78284 0.0
H1659 H 0.9452 0.21327 0.79175 0.0
H1660 H 0.86373 0.19746 0.82836 0.0
H1661 H 0.84084 0.21989 0.80268 0.0
H1662 H 0.90894 0.26217 0.78688 0.0
C1663 C 0.95828 0.22444 0.8564 0.0
C1664 C 0.95369 0.21314 0.87725 0.0
C1665 C 0.93006 0.19991 0.87879 0.0
C1666 C 0.91101 0.19842 0.85991 0.0
C1667 C 0.91591 0.21057 0.83989 0.0
C1668 C 0.93901 0.22354 0.83816 0.0
C1669 C 0.93856 0.2393 0.81792 0.0
C1670 C 0.94868 0.26516 0.82717 0.0
C1671 C 0.95254 0.23194 0.79827 0.0
C1672 C 0.91142 0.23423 0.80935 0.0
C1673 C 0.89882 0.21684 0.82152 0.0
C1674 C 0.87341 0.21081 0.81849 0.0
C1675 C 0.86056 0.22375 0.80382 0.0
C1676 C 0.87313 0.24301 0.79292 0.0
C1677 C 0.89882 0.24742 0.79471 0.0
H1678 H 0.6557 0.29841 0.66109 0.0
H1679 H 0.73012 0.31663 0.64499 0.0
H1680 H 0.72709 0.27534 0.63093 0.0
H1681 H 0.65753 0.24301 0.68239 0.0
H1682 H 0.62672 0.22959 0.66904 0.0
H1683 H 0.63504 0.26043 0.67783 0.0
H1684 H 0.61987 0.26894 0.63474 0.0
H1685 H 0.6115 0.23812 0.6258 0.0
H1686 H 0.632 0.25734 0.60987 0.0
H1687 H 0.71587 0.23154 0.61984 0.0
H1688 H 0.6968 0.18946 0.61068 0.0
H1689 H 0.62954 0.20119 0.63305 0.0
C1690 C 0.67144 0.29376 0.65471 0.0
C1691 C 0.69322 0.31064 0.65428 0.0
C1692 C 0.71326 0.30391 0.64546 0.0
C1693 C 0.71172 0.28054 0.63749 0.0
C1694 C 0.68992 0.26432 0.63824 0.0
C1695 C 0.6701 0.27073 0.64645 0.0
C1696 C 0.64858 0.25022 0.64507 0.0
C1697 C 0.64157 0.24554 0.67007 0.0
C1698 C 0.6267 0.25388 0.62784 0.0
C1699 C 0.65941 0.23111 0.63504 0.0
C1700 C 0.6833 0.23949 0.63129 0.0
C1701 C 0.69716 0.22483 0.6226 0.0
C1702 C 0.68624 0.201 0.61757 0.0
C1703 C 0.66171 0.19222 0.62109 0.0
C1704 C 0.64822 0.20753 0.62991 0.0
H1705 H 0.58988 0.74801 0.36514 0.0
H1706 H 0.54876 0.79552 0.33305 0.0
H1707 H 0.58177 0.80913 0.30891 0.0
H1708 H 0.64941 0.78596 0.36891 0.0
H1709 H 0.66403 0.7626 0.36184 0.0
H1710 H 0.63729 0.7569 0.37673 0.0
H1711 H 0.61569 0.72458 0.3432 0.0
H1712 H 0.64236 0.73017 0.32822 0.0
H1713 H 0.61306 0.73157 0.31248 0.0
H1714 H 0.61918 0.81709 0.28794 0.0
H1715 H 0.65829 0.819 0.27207 0.0
H1716 H 0.67404 0.76581 0.31781 0.0
C1717 C 0.58779 0.76133 0.3531 0.0
C1718 C 0.56676 0.77071 0.35096 0.0
C1719 C 0.56474 0.78808 0.33496 0.0
C1720 C 0.58337 0.79593 0.32119 0.0
C1721 C 0.60383 0.78622 0.3237 0.0
C1722 C 0.60613 0.76932 0.33928 0.0
C1723 C 0.62978 0.76151 0.33854 0.0
C1724 C 0.64609 0.76709 0.36295 0.0
C1725 C 0.62492 0.73541 0.3301 0.0
C1726 C 0.64044 0.77662 0.32005 0.0
C1727 C 0.62525 0.79077 0.31168 0.0
C1728 C 0.63123 0.80609 0.29435 0.0
C1729 C 0.65337 0.80696 0.28536 0.0
C1730 C 0.66918 0.79259 0.29376 0.0
C1731 C 0.66251 0.77725 0.3113 0.0
H1732 H 0.08204 0.2106 0.43271 0.0
H1733 H 0.09579 0.25462 0.49928 0.0
H1734 H 0.09636 0.22021 0.52189 0.0
H1735 H 0.04178 0.16166 0.45342 0.0
H1736 H 0.05259 0.13904 0.43816 0.0
H1737 H 0.05488 0.16707 0.42624 0.0
H1738 H 0.10129 0.17135 0.42673 0.0
H1739 H 0.0991 0.14324 0.43848 0.0
H1740 H 0.12002 0.1686 0.45417 0.0
H1741 H 0.09329 0.18126 0.53835 0.0
H1742 H 0.08874 0.14079 0.54792 0.0
H1743 H 0.07685 0.11789 0.47209 0.0
C1744 C 0.08589 0.21309 0.45202 0.0
C1745 C 0.08951 0.23606 0.464 0.0
C1746 C 0.09344 0.23779 0.4894 0.0
C1747 C 0.09366 0.21812 0.50253 0.0
C1748 C 0.08971 0.19598 0.49044 0.0
C1749 C 0.08606 0.19317 0.46573 0.0
C1750 C 0.08161 0.16686 0.45772 0.0
C1751 C 0.0562 0.15814 0.443 0.0
C1752 C 0.1017 0.16224 0.44342 0.0
C1753 C 0.0831 0.15551 0.4817 0.0
C1754 C 0.08782 0.17296 0.50018 0.0
C1755 C 0.08973 0.16755 0.52394 0.0
C1756 C 0.087 0.14407 0.52921 0.0
C1757 C 0.08234 0.12521 0.51108 0.0
C1758 C 0.08037 0.13137 0.48672 0.0
H1759 H 0.64087 0.27845 0.22307 0.0
H1760 H 0.65136 0.33849 0.18133 0.0
H1761 H 0.69564 0.34755 0.19668 0.0
H1762 H 0.6856 0.30411 0.27488 0.0
H1763 H 0.69567 0.27749 0.27963 0.0
H1764 H 0.66483 0.27627 0.26608 0.0
H1765 H 0.67123 0.2508 0.22969 0.0
H1766 H 0.7021 0.25197 0.2431 0.0
H1767 H 0.69635 0.26121 0.21349 0.0
H1768 H 0.73975 0.34967 0.2165 0.0
H1769 H 0.77871 0.34469 0.23791 0.0
H1770 H 0.74033 0.28264 0.2666 0.0
C1771 C 0.65234 0.2937 0.21727 0.0
C1772 C 0.64214 0.30787 0.20095 0.0
C1773 C 0.65829 0.32739 0.1938 0.0
C1774 C 0.68362 0.33265 0.20247 0.0
C1775 C 0.69297 0.31823 0.21833 0.0
C1776 C 0.67775 0.29911 0.22564 0.0
C1777 C 0.69245 0.28602 0.24234 0.0
C1778 C 0.68414 0.28598 0.26721 0.0
C1779 C 0.69041 0.26102 0.23151 0.0
C1780 C 0.71838 0.30071 0.24338 0.0
C1781 C 0.71821 0.31925 0.22942 0.0
C1782 C 0.7399 0.33519 0.22744 0.0
C1783 C 0.76213 0.33216 0.2398 0.0
C1784 C 0.76309 0.31326 0.25422 0.0
C1785 C 0.7406 0.29736 0.25592 0.0
H1786 H 0.55916 0.8725 0.95618 0.0
H1787 H 0.63524 0.86997 0.9729 0.0
H1788 H 0.64421 0.91032 0.99263 0.0
H1789 H 0.57237 0.93414 0.9423 0.0
H1790 H 0.54599 0.94053 0.9538 0.0
H1791 H 0.5452 0.91144 0.94143 0.0
H1792 H 0.53372 0.89461 0.98068 0.0
H1793 H 0.53411 0.92349 0.99331 0.0
H1794 H 0.55274 0.90608 1.00859 0.0
H1795 H 0.64378 0.9512 1.01439 0.0
H1796 H 0.63564 0.98855 0.02989 0.0
H1797 H 0.56072 0.9669 0.99528 0.0
C1798 C 0.57783 0.88047 0.96379 0.0
C1799 C 0.59648 0.86752 0.96282 0.0
C1800 C 0.62056 0.87909 0.97303 0.0
C1801 C 0.62577 0.90215 0.9845 0.0
C1802 C 0.60692 0.9142 0.98537 0.0
C1803 C 0.58348 0.90383 0.97468 0.0
C1804 C 0.56665 0.92087 0.977 0.0
C1805 C 0.55695 0.92711 0.95216 0.0
C1806 C 0.54555 0.91065 0.99071 0.0
C1807 C 0.58392 0.9422 0.99136 0.0
C1808 C 0.60706 0.93791 0.99624 0.0
C1809 C 0.62574 0.95459 1.01025 0.0
C1810 C 0.62088 0.97594 0.01918 0.0
C1811 C 0.59754 0.98129 1.01401 0.0
C1812 C 0.57889 0.96386 0.99966 0.0
H1813 H 0.98606 0.76522 0.69915 0.0
H1814 H 1.01886 0.83891 0.70016 0.0
H1815 H 0.98607 0.84817 0.7218 0.0
H1816 H 0.92244 0.77275 0.68817 0.0
H1817 H 0.91072 0.74936 0.7057 0.0
H1818 H 0.93694 0.74842 0.69092 0.0
H1819 H 0.96168 0.74384 0.7312 0.0
H1820 H 0.93558 0.74482 0.74617 0.0
H1821 H 0.96431 0.76511 0.75617 0.0
H1822 H 0.95067 0.84916 0.7472 0.0
H1823 H 0.91359 0.84255 0.76717 0.0
H1824 H 0.89981 0.76855 0.74587 0.0
C1825 C 0.98628 0.78337 0.70371 0.0
C1826 C 1.00553 0.80134 0.69774 0.0
C1827 C 1.00461 0.82476 0.70413 0.0
C1828 C 0.98598 0.83017 0.71669 0.0
C1829 C 0.96758 0.81209 0.72252 0.0
C1830 C 0.96725 0.78912 0.71564 0.0
C1831 C 0.94458 0.77303 0.7229 0.0
C1832 C 0.92767 0.76012 0.7006 0.0
C1833 C 0.95199 0.75567 0.74013 0.0
C1834 C 0.93254 0.79037 0.73552 0.0
C1835 C 0.94637 0.81281 0.73539 0.0
C1836 C 0.9397 0.83165 0.74697 0.0
C1837 C 0.91849 0.82768 0.75853 0.0
C1838 C 0.90326 0.80505 0.75832 0.0
C1839 C 0.91065 0.78616 0.74642 0.0
H1840 H 0.19928 0.07307 0.89858 0.0
H1841 H 0.27068 0.07735 0.93811 0.0
H1842 H 0.25155 0.05975 0.97172 0.0
H1843 H 0.17573 0.0941 0.93967 0.0
H1844 H 0.14504 0.07637 0.9345 0.0
H1845 H 0.16293 0.07957 0.91049 0.0
H1846 H 0.15717 0.03478 0.90377 0.0
H1847 H 0.13867 0.03129 0.92766 0.0
H1848 H 0.16484 1.01836 0.92844 0.0
H1849 H 0.22655 0.05553 1.00425 0.0
H1850 H 0.19794 0.0624 0.03188 0.0
H1851 H 0.14185 0.05994 0.97155 0.0
C1852 C 0.21066 0.06878 0.91377 0.0
C1853 C 0.23621 0.07596 0.9159 0.0
C1854 C 0.251 0.07129 0.93616 0.0
C1855 C 0.24024 0.06131 0.95526 0.0
C1856 C 0.21477 0.05592 0.95347 0.0
C1857 C 0.20009 0.05888 0.93287 0.0
C1858 C 0.17375 0.05632 0.93693 0.0
C1859 C 0.16384 0.07788 0.93002 0.0
C1860 C 0.15766 0.03384 0.9234 0.0
C1861 C 0.17643 0.05441 0.96361 0.0
C1862 C 0.19999 0.05331 0.97271 0.0
C1863 C 0.20786 0.05552 0.99727 0.0
C1864 C 0.19157 0.0597 1.01284 0.0
C1865 C 0.16775 0.06175 1.00374 0.0
C1866 C 0.15983 0.05802 0.97893 0.0
H1867 H 0.84226 0.32248 0.60237 0.0
H1868 H 0.80736 0.38086 0.6096 0.0
H1869 H 0.80203 0.37236 0.65099 0.0
H1870 H 0.80385 0.28414 0.64079 0.0
H1871 H 0.82939 0.27261 0.65292 0.0
H1872 H 0.82736 0.28128 0.62279 0.0
H1873 H 0.87033 0.30867 0.63316 0.0
H1874 H 0.87237 0.30043 0.66336 0.0
H1875 H 0.87601 0.33076 0.65787 0.0
H1876 H 0.80733 0.36227 0.69319 0.0
H1877 H 0.81773 0.34738 0.73242 0.0
H1878 H 0.84632 0.29389 0.6975 0.0
C1879 C 0.83289 0.33308 0.61242 0.0
C1880 C 0.82534 0.35241 0.60276 0.0
C1881 C 0.81326 0.36593 0.61656 0.0
C1882 C 0.81017 0.36127 0.64013 0.0
C1883 C 0.81877 0.34272 0.64944 0.0
C1884 C 0.82933 0.32845 0.63587 0.0
C1885 C 0.83815 0.3104 0.65059 0.0
C1886 C 0.82383 0.28564 0.64121 0.0
C1887 C 0.86585 0.31272 0.65128 0.0
C1888 C 0.83191 0.31745 0.6748 0.0
C1889 C 0.82074 0.33615 0.67372 0.0
C1890 C 0.81547 0.34727 0.69419 0.0
C1891 C 0.82161 0.33892 0.7163 0.0
C1892 C 0.83256 0.31956 0.71764 0.0
C1893 C 0.83754 0.30851 0.69668 0.0
H1894 H 0.54218 0.1458 0.40262 0.0
H1895 H 0.61772 0.17752 0.39939 0.0
H1896 H 0.62687 0.17911 0.44304 0.0
H1897 H 0.54331 0.17022 0.47263 0.0
H1898 H 0.52345 0.14268 0.47625 0.0
H1899 H 0.51941 0.15652 0.44882 0.0
H1900 H 0.52235 0.11865 0.42515 0.0
H1901 H 0.52693 0.10505 0.45217 0.0
H1902 H 0.54921 0.10695 0.43173 0.0
H1903 H 0.63217 0.16076 0.47982 0.0
H1904 H 0.63147 0.12859 0.50617 0.0
H1905 H 0.55298 0.1073 0.48752 0.0
C1906 C 0.56007 0.1548 0.41153 0.0
C1907 C 0.57923 0.1615 0.39801 0.0
C1908 C 0.60279 0.17246 0.40967 0.0
C1909 C 0.60813 0.1734 0.43455 0.0
C1910 C 0.58965 0.16341 0.44744 0.0
C1911 C 0.56566 0.15514 0.43644 0.0
C1912 C 0.55068 0.14006 0.45257 0.0
C1913 C 0.53319 0.15317 0.4632 0.0
C1914 C 0.53656 0.11629 0.43962 0.0
C1915 C 0.57085 0.13748 0.47174 0.0
C1916 C 0.5929 0.15222 0.46946 0.0
C1917 C 0.61487 0.14982 0.48241 0.0
C1918 C 0.61442 0.13139 0.49717 0.0
C1919 C 0.59222 0.11542 0.49832 0.0
C1920 C 0.57019 0.11932 0.48658 0.0
H1921 H 0.81987 0.73407 0.10378 0.0
H1922 H 0.89214 0.7195 0.1129 0.0
H1923 H 0.89757 0.73419 0.15584 0.0
H1924 H 0.8327 0.78647 0.14355 0.0
H1925 H 0.80388 0.77972 0.15497 0.0
H1926 H 0.80615 0.76862 0.12519 0.0
H1927 H 0.78922 0.72654 0.13559 0.0
H1928 H 0.78684 0.73751 0.1654 0.0
H1929 H 0.80411 0.71558 0.16114 0.0
H1930 H 0.89535 0.7532 0.19875 0.0
H1931 H 0.88471 0.76988 0.23612 0.0
H1932 H 0.81237 0.76896 0.19988 0.0
C1933 C 0.83698 0.73398 0.1147 0.0
C1934 C 0.85574 0.7257 0.1044 0.0
C1935 C 0.87748 0.72567 0.11988 0.0
C1936 C 0.88071 0.73412 0.14444 0.0
C1937 C 0.86188 0.74226 0.15382 0.0
C1938 C 0.84025 0.74186 0.13933 0.0
C1939 C 0.82236 0.75069 0.15373 0.0
C1940 C 0.81589 0.77268 0.14376 0.0
C1941 C 0.79926 0.73143 0.15397 0.0
C1942 C 0.8372 0.75641 0.17865 0.0
C1943 C 0.8601 0.75171 0.1783 0.0
C1944 C 0.87733 0.75658 0.19901 0.0
C1945 C 0.87109 0.76619 0.22034 0.0
C1946 C 0.84754 0.7707 0.2215 0.0
C1947 C 0.83043 0.76555 0.20007 0.0
H1948 H 0.22346 0.10294 0.79242 0.0
H1949 H 0.19995 0.16052 0.82671 0.0
H1950 H 0.17141 0.1615 0.79011 0.0
H1951 H 0.22131 0.12301 0.73345 0.0
H1952 H 0.21035 0.09402 0.7187 0.0
H1953 H 0.22914 0.09835 0.74744 0.0
H1954 H 0.19572 0.06894 0.76438 0.0
H1955 H 0.17678 0.06458 0.73573 0.0
H1956 H 0.16508 0.07358 0.76209 0.0
H1957 H 0.14476 0.1553 0.74983 0.0
H1958 H 0.12245 0.14282 0.70918 0.0
H1959 H 0.16431 0.08976 0.70172 0.0
C1960 C 0.2124 0.11585 0.79229 0.0
C1961 C 0.21393 0.13166 0.81243 0.0
C1962 C 0.19907 0.14821 0.81148 0.0
C1963 C 0.18281 0.1489 0.79078 0.0
C1964 C 0.18169 0.13291 0.7713 0.0
C1965 C 0.19614 0.11674 0.7719 0.0
C1966 C 0.19137 0.10129 0.74877 0.0
C1967 C 0.21441 0.10436 0.73636 0.0
C1968 C 0.18166 0.07558 0.753 0.0
C1969 C 0.17186 0.11119 0.735 0.0
C1970 C 0.16652 0.12943 0.74824 0.0
C1971 C 0.14889 0.14114 0.73926 0.0
C1972 C 0.13643 0.134 0.71612 0.0
C1973 C 0.14169 0.11535 0.70226 0.0
C1974 C 0.15968 0.10389 0.71194 0.0
H1975 H 0.83865 0.32782 0.46976 0.0
H1976 H 0.80184 0.38533 0.46782 0.0
H1977 H 0.79113 0.37729 0.42404 0.0
H1978 H 0.86547 0.3379 0.41865 0.0
H1979 H 0.86178 0.30766 0.40834 0.0
H1980 H 0.86385 0.31596 0.43975 0.0
H1981 H 0.82247 0.28724 0.4413 0.0
H1982 H 0.82033 0.27872 0.40985 0.0
H1983 H 0.7959 0.2893 0.42108 0.0
H1984 H 0.78979 0.36671 0.38011 0.0
H1985 H 0.79539 0.35245 0.33963 0.0
H1986 H 0.83124 0.30072 0.37044 0.0
C1987 C 0.82787 0.33841 0.46023 0.0
C1988 C 0.82109 0.35721 0.47225 0.0
C1989 C 0.80714 0.37075 0.45905 0.0
C1990 C 0.80097 0.36633 0.43415 0.0
C1991 C 0.80855 0.34808 0.42279 0.0
C1992 C 0.82138 0.3341 0.43544 0.0
C1993 C 0.82862 0.31648 0.41887 0.0
C1994 C 0.85658 0.31971 0.42156 0.0
C1995 C 0.81607 0.29145 0.42302 0.0
C1996 C 0.81859 0.32325 0.39486 0.0
C1997 C 0.80702 0.34147 0.39748 0.0
C1998 C 0.7983 0.35209 0.37782 0.0
C1999 C 0.80165 0.34396 0.35494 0.0
C2000 C 0.81341 0.32529 0.35194 0.0
C2001 C 0.82162 0.31463 0.37216 0.0
H2002 H 0.57517 0.14382 0.25508 0.0
H2003 H 0.64551 0.15894 0.2997 0.0
H2004 H 0.66616 0.16316 0.26393 0.0
H2005 H 0.58653 0.10627 0.21831 0.0
H2006 H 0.57081 0.11296 0.19074 0.0
H2007 H 0.56158 0.12083 0.21858 0.0
H2008 H 0.5683 0.16421 0.2091 0.0
H2009 H 0.57674 0.15584 0.18075 0.0
H2010 H 0.5971 0.17869 0.20068 0.0
H2011 H 0.67839 0.15195 0.22623 0.0
H2012 H 0.6808 0.12818 0.18953 0.0
H2013 H 0.60337 0.12047 0.16782 0.0
C2014 C 0.59489 0.14936 0.25722 0.0
C2015 C 0.6088 0.1511 0.27995 0.0
C2016 C 0.63458 0.15756 0.28232 0.0
C2017 C 0.64646 0.16018 0.26208 0.0
C2018 C 0.6323 0.15637 0.23963 0.0
C2019 C 0.60698 0.15157 0.23705 0.0
C2020 C 0.59595 0.14328 0.21143 0.0
C2021 C 0.5777 0.11943 0.20971 0.0
C2022 C 0.58383 0.16163 0.19981 0.0
C2023 C 0.61879 0.14151 0.20075 0.0
C2024 C 0.63967 0.15005 0.21702 0.0
C2025 C 0.66239 0.1462 0.21291 0.0
C2026 C 0.66366 0.13263 0.19215 0.0
C2027 C 0.64237 0.12329 0.17586 0.0
C2028 C 0.61996 0.12848 0.17972 0.0
H2029 H 0.83775 0.75462 0.96659 0.0
H2030 H 0.87147 0.6963 0.95452 0.0
H2031 H 0.87534 0.70691 0.91309 0.0
H2032 H 0.80327 0.75065 0.90817 0.0
H2033 H 0.80789 0.78172 0.90644 0.0
H2034 H 0.80826 0.76989 0.93514 0.0
H2035 H 0.85117 0.79614 0.9492 0.0
H2036 H 0.8509 0.80811 0.92055 0.0
H2037 H 0.87556 0.795 0.9318 0.0
H2038 H 0.87293 0.72296 0.8708 0.0
H2039 H 0.86735 0.74373 0.83439 0.0
H2040 H 0.83735 0.79334 0.87397 0.0
C2041 C 0.8462 0.74411 0.9554 0.0
C2042 C 0.85436 0.72443 0.9644 0.0
C2043 C 0.86519 0.71144 0.94863 0.0
C2044 C 0.86737 0.71735 0.92483 0.0
C2045 C 0.85891 0.73662 0.91658 0.0
C2046 C 0.84879 0.74998 0.9316 0.0
C2047 C 0.84121 0.76994 0.91847 0.0
C2048 C 0.81352 0.76793 0.91697 0.0
C2049 C 0.85556 0.79371 0.93074 0.0
C2050 C 0.84839 0.76573 0.89363 0.0
C2051 C 0.8584 0.74627 0.89287 0.0
C2052 C 0.86538 0.73834 0.87154 0.0
C2053 C 0.86211 0.75036 0.85074 0.0
C2054 C 0.85224 0.77061 0.8509 0.0
C2055 C 0.84543 0.77831 0.87299 0.0
H2056 H 0.87586 0.14274 1.0003 0.0
H2057 H 0.90746 0.20859 0.04271 0.0
H2058 H 0.94858 0.20149 0.04166 0.0
H2059 H 0.91823 0.11089 0.02882 0.0
H2060 H 0.91957 0.09404 1.0016 0.0
H2061 H 0.89238 0.10424 1.00548 0.0
H2062 H 0.89512 0.12449 0.96608 0.0
H2063 H 0.92244 0.11452 0.96219 0.0
H2064 H 0.92272 0.1452 0.96261 0.0
H2065 H 0.98602 0.18839 0.03515 0.0
H2066 H 1.01798 0.16837 0.02642 0.0
H2067 H 0.9629 0.1099 0.98966 0.0
C2068 C 0.89144 0.15561 1.00942 0.0
C2069 C 0.88843 0.17625 0.02154 0.0
C2070 C 0.90926 0.19261 0.03337 0.0
C2071 C 0.93273 0.18881 0.0328 0.0
C2072 C 0.93509 0.16847 0.0205 0.0
C2073 C 0.91508 0.15197 1.00927 0.0
C2074 C 0.92291 0.13136 0.99782 0.0
C2075 C 0.91267 0.1088 1.00911 0.0
C2076 C 0.91534 0.12875 0.97055 0.0
C2077 C 0.95042 0.139 1.00431 0.0
C2078 C 0.95694 0.16054 0.01724 0.0
C2079 C 0.98115 0.17142 0.02518 0.0
C2080 C 0.99925 0.15983 0.02012 0.0
C2081 C 0.99325 0.13748 1.00732 0.0
C2082 C 0.96835 0.12707 0.99918 0.0
H2083 H 0.40922 0.4545 0.06479 0.0
H2084 H 0.36719 0.48446 1.01059 0.0
H2085 H 0.4055 0.51058 1.00241 0.0
H2086 H 0.45389 0.50957 0.08713 0.0
H2087 H 0.4787 0.495 0.09275 0.0
H2088 H 0.4479 0.47978 0.09484 0.0
H2089 H 0.45205 0.44696 0.06428 0.0
H2090 H 0.48272 0.46221 0.06186 0.0
H2091 H 0.46038 0.45422 0.03542 0.0
H2092 H 0.45031 0.53048 0.99712 0.0
H2093 H 0.49504 0.54571 0.99929 0.0
H2094 H 0.50735 0.50504 0.05926 0.0
C2095 C 0.40794 0.46692 0.05153 0.0
C2096 C 0.38488 0.46741 0.03846 0.0
C2097 C 0.38434 0.48387 0.02116 0.0
C2098 C 0.40616 0.49866 0.01624 0.0
C2099 C 0.42859 0.49725 0.02905 0.0
C2100 C 0.42947 0.48212 0.04678 0.0
C2101 C 0.45576 0.48392 0.05816 0.0
C2102 C 0.45927 0.49259 0.0848 0.0
C2103 C 0.46315 0.46043 0.05472 0.0
C2104 C 0.46972 0.5021 0.04385 0.0
C2105 C 0.4538 0.50942 0.02691 0.0
C2106 C 0.46274 0.52509 1.01065 0.0
C2107 C 0.48829 0.53362 1.01193 0.0
C2108 C 0.50495 0.52694 0.02962 0.0
C2109 C 0.49526 0.51092 0.04576 0.0
H2110 H 0.36199 0.57348 0.71961 0.0
H2111 H 0.33223 0.52412 0.76842 0.0
H2112 H 0.31723 0.55508 0.7893 0.0
H2113 H 0.38372 0.62136 0.76228 0.0
H2114 H 0.37631 0.64268 0.74269 0.0
H2115 H 0.38295 0.61626 0.73042 0.0
H2116 H 0.34125 0.60665 0.70291 0.0
H2117 H 0.33461 0.63323 0.71485 0.0
H2118 H 0.31357 0.60569 0.7159 0.0
H2119 H 0.30771 0.59227 0.80623 0.0
H2120 H 0.3031 0.63229 0.81683 0.0
H2121 H 0.33916 0.65649 0.75655 0.0
C2122 C 0.35201 0.56902 0.73446 0.0
C2123 C 0.34824 0.54638 0.74237 0.0
C2124 C 0.33525 0.54135 0.762 0.0
C2125 C 0.3267 0.55881 0.77399 0.0
C2126 C 0.33126 0.58111 0.76605 0.0
C2127 C 0.34345 0.58617 0.74661 0.0
C2128 C 0.3468 0.61162 0.74206 0.0
C2129 C 0.37406 0.62368 0.74452 0.0
C2130 C 0.33324 0.61445 0.71747 0.0
C2131 C 0.33486 0.62019 0.76218 0.0
C2132 C 0.32593 0.60238 0.7758 0.0
C2133 C 0.31447 0.60632 0.79558 0.0
C2134 C 0.31192 0.62906 0.80144 0.0
C2135 C 0.32088 0.64749 0.78758 0.0
C2136 C 0.33248 0.64287 0.76774 0.0
H2137 H 0.23292 0.68348 0.53857 0.0
H2138 H 0.26814 0.64509 0.49134 0.0
H2139 H 0.23098 0.61312 0.48411 0.0
H2140 H 0.20527 0.6341 0.56634 0.0
H2141 H 0.17793 0.64427 0.56972 0.0
H2142 H 0.20628 0.66496 0.56913 0.0
H2143 H 0.18582 0.68367 0.53399 0.0
H2144 H 0.15741 0.66295 0.53443 0.0
H2145 H 0.1709 0.66564 0.50719 0.0
H2146 H 0.18975 0.58526 0.48233 0.0
H2147 H 0.14983 0.56186 0.49001 0.0
H2148 H 0.14374 0.61757 0.5408 0.0
C2149 C 0.23264 0.66847 0.52646 0.0
C2150 C 0.25314 0.66674 0.51527 0.0
C2151 C 0.25247 0.64665 0.50001 0.0
C2152 C 0.23145 0.62852 0.49569 0.0
C2153 C 0.21149 0.6307 0.50708 0.0
C2154 C 0.21207 0.65003 0.52242 0.0
C2155 C 0.18913 0.64729 0.53406 0.0
C2156 C 0.19501 0.64767 0.56143 0.0
C2157 C 0.17498 0.666 0.52699 0.0
C2158 C 0.17561 0.62335 0.523 0.0
C2159 C 0.18851 0.6142 0.50713 0.0
C2160 C 0.17949 0.59223 0.49476 0.0
C2161 C 0.15686 0.57912 0.49913 0.0
C2162 C 0.14399 0.58794 0.51607 0.0
C2163 C 0.15338 0.61039 0.52788 0.0
H2164 H 0.70011 0.9544 0.75542 0.0
H2165 H 0.72044 1.01605 0.80578 0.0
H2166 H 0.76189 1.00901 0.81502 0.0
H2167 H 0.7297 0.91967 0.79055 0.0
H2168 H 0.73926 0.90453 0.76614 0.0
H2169 H 0.7124 0.91621 0.76105 0.0
H2170 H 0.73061 0.93981 0.72764 0.0
H2171 H 0.7576 0.92817 0.73269 0.0
H2172 H 0.76032 0.9593 0.73427 0.0
H2173 H 0.7997 0.99316 0.8217 0.0
H2174 H 0.83062 0.96914 0.82583 0.0
H2175 H 0.78497 0.91754 0.77185 0.0
C2176 C 0.71345 0.96671 0.76797 0.0
C2177 C 0.70712 0.98582 0.7798 0.0
C2178 C 0.72492 1.00128 0.7965 0.0
C2179 C 0.74855 0.99751 0.80178 0.0
C2180 C 0.75408 0.97823 0.79016 0.0
C2181 C 0.73705 0.9631 0.77357 0.0
C2182 C 0.74689 0.94257 0.76521 0.0
C2183 C 0.73113 0.91939 0.77111 0.0
C2184 C 0.74898 0.94247 0.73836 0.0
C2185 C 0.77182 0.94818 0.78017 0.0
C2186 C 0.7758 0.96897 0.7942 0.0
C2187 C 0.79694 0.97699 0.81058 0.0
C2188 C 0.81431 0.96319 0.8129 0.0
C2189 C 0.81031 0.94157 0.79903 0.0
C2190 C 0.78892 0.93426 0.78224 0.0
H2191 H 0.73709 0.97678 0.57758 0.0
H2192 H 0.74084 0.95671 0.50343 0.0
H2193 H 0.7061 0.97493 0.49099 0.0
H2194 H 0.67104 0.96691 0.57257 0.0
H2195 H 0.67136 0.9916 0.59304 0.0
H2196 H 0.69642 0.97711 0.59604 0.0
H2197 H 0.72672 1.01626 0.59338 0.0
H2198 H 0.70175 0.03087 0.59039 0.0
H2199 H 0.72211 0.03292 0.5681 0.0
H2200 H 0.6693 0.99572 0.48662 0.0
H2201 H 0.63623 1.01645 0.49061 0.0
H2202 H 0.65601 0.02383 0.56769 0.0
C2203 C 0.73073 0.97615 0.55864 0.0
C2204 C 0.74226 0.965 0.54156 0.0
C2205 C 0.73284 0.96492 0.51705 0.0
C2206 C 0.7129 0.97532 0.50979 0.0
C2207 C 0.70208 0.98605 0.52708 0.0
C2208 C 0.7108 0.98654 0.55107 0.0
C2209 C 0.69604 0.99923 0.56617 0.0
C2210 C 0.68294 0.98273 0.58295 0.0
C2211 C 0.71265 0.02112 0.58035 0.0
C2212 C 0.67759 1.00585 0.54707 0.0
C2213 C 0.68138 0.99803 0.52461 0.0
C2214 C 0.66647 1.00187 0.50421 0.0
C2215 C 0.64752 1.01382 0.50669 0.0
C2216 C 0.64306 0.02225 0.52944 0.0
C2217 C 0.65863 1.01799 0.5499 0.0
H2218 H 0.36718 0.41836 0.66639 0.0
H2219 H 0.3244 0.46523 0.69142 0.0
H2220 H 0.29608 0.43211 0.70424 0.0
H2221 H 0.31184 0.36217 0.65328 0.0
H2222 H 0.33277 0.34456 0.6637 0.0
H2223 H 0.34296 0.36928 0.64714 0.0
H2224 H 0.37816 0.38545 0.68165 0.0
H2225 H 0.36783 0.36134 0.69845 0.0
H2226 H 0.37105 0.39071 0.71144 0.0
H2227 H 0.28459 0.39999 0.72889 0.0
H2228 H 0.28605 0.36907 0.75656 0.0
H2229 H 0.33345 0.34084 0.71454 0.0
C2230 C 0.35098 0.4214 0.67319 0.0
C2231 C 0.34827 0.44437 0.67832 0.0
C2232 C 0.32699 0.44781 0.6874 0.0
C2233 C 0.31071 0.429 0.69477 0.0
C2234 C 0.31556 0.40683 0.69225 0.0
C2235 C 0.33463 0.40271 0.68069 0.0
C2236 C 0.33879 0.37844 0.68419 0.0
C2237 C 0.33112 0.36268 0.66068 0.0
C2238 C 0.36551 0.37908 0.69457 0.0
C2239 C 0.32141 0.37091 0.702 0.0
C2240 C 0.30763 0.3872 0.70592 0.0
C2241 C 0.2942 0.38648 0.72512 0.0
C2242 C 0.29525 0.36905 0.74087 0.0
C2243 C 0.30933 0.35251 0.73703 0.0
C2244 C 0.32182 0.35293 0.71702 0.0
H2245 H 0.1655 0.55066 0.24432 0.0
H2246 H 0.09355 0.56578 0.24268 0.0
H2247 H 0.11233 0.60795 0.24748 0.0
H2248 H 0.19746 0.59783 0.2885 0.0
H2249 H 0.22459 0.60369 0.27416 0.0
H2250 H 0.20558 0.57463 0.27134 0.0
H2251 H 0.20125 0.57428 0.22515 0.0
H2252 H 0.22027 0.60329 0.22781 0.0
H2253 H 0.1902 0.59726 0.21072 0.0
H2254 H 0.13878 0.64854 0.25112 0.0
H2255 H 0.17108 0.68458 0.25333 0.0
H2256 H 0.22568 0.64299 0.25249 0.0
C2257 C 0.15366 0.5628 0.2451 0.0
C2258 C 0.12801 0.55484 0.24314 0.0
C2259 C 0.11323 0.57139 0.24416 0.0
C2260 C 0.12373 0.59541 0.24691 0.0
C2261 C 0.14904 0.60264 0.24869 0.0
C2262 C 0.16382 0.58684 0.24785 0.0
C2263 C 0.19047 0.59919 0.24962 0.0
C2264 C 0.2054 0.5935 0.27225 0.0
C2265 C 0.20117 0.59314 0.22697 0.0
C2266 C 0.18833 0.62441 0.2514 0.0
C2267 C 0.16429 0.62602 0.25088 0.0
C2268 C 0.15769 0.6475 0.25163 0.0
C2269 C 0.17614 0.66786 0.25277 0.0
C2270 C 0.20091 0.66663 0.25316 0.0
C2271 C 0.20698 0.64455 0.25264 0.0
H2272 H 0.51009 0.66581 0.4628 0.0
H2273 H 0.57612 0.7102 0.44501 0.0
H2274 H 0.60108 0.69102 0.47313 0.0
H2275 H 0.53038 0.66449 0.52493 0.0
H2276 H 0.51581 0.63426 0.5259 0.0
H2277 H 0.50291 0.65155 0.50474 0.0
H2278 H 0.50454 0.62216 0.46968 0.0
H2279 H 0.51704 0.60425 0.49034 0.0
H2280 H 0.53304 0.61433 0.46598 0.0
H2281 H 0.61864 0.6669 0.5041 0.0
H2282 H 0.62691 0.63668 0.53109 0.0
H2283 H 0.54912 0.60842 0.52656 0.0
C2284 C 0.5298 0.67154 0.46479 0.0
C2285 C 0.5412 0.68952 0.45187 0.0
C2286 C 0.56705 0.69635 0.45474 0.0
C2287 C 0.58135 0.68571 0.47079 0.0
C2288 C 0.56945 0.66826 0.48359 0.0
C2289 C 0.54425 0.66104 0.48045 0.0
C2290 C 0.53577 0.64122 0.49534 0.0
C2291 C 0.52031 0.64832 0.51381 0.0
C2292 C 0.52179 0.6192 0.47938 0.0
C2293 C 0.56013 0.63826 0.50725 0.0
C2294 C 0.57942 0.65417 0.50065 0.0
C2295 C 0.60367 0.65437 0.5094 0.0
C2296 C 0.60823 0.63736 0.52477 0.0
C2297 C 0.58856 0.62045 0.53067 0.0
C2298 C 0.56437 0.62123 0.52218 0.0
H2299 H 0.76904 0.41676 0.72499 0.0
H2300 H 0.70797 0.39419 0.76363 0.0
H2301 H 0.73621 0.39053 0.79893 0.0
H2302 H 0.79485 0.3788 0.73362 0.0
H2303 H 0.82694 0.39289 0.73934 0.0
H2304 H 0.80598 0.40705 0.72331 0.0
H2305 H 0.81901 0.44319 0.75365 0.0
H2306 H 0.84095 0.42954 0.76983 0.0
H2307 H 0.8188 0.44004 0.78515 0.0
H2308 H 0.76474 0.37152 0.81966 0.0
H2309 H 0.79057 0.34294 0.82429 0.0
H2310 H 0.83575 0.37694 0.77476 0.0
C2311 C 0.76185 0.41244 0.74143 0.0
C2312 C 0.73642 0.40521 0.74145 0.0
C2313 C 0.72743 0.39955 0.76309 0.0
C2314 C 0.74346 0.39758 0.78338 0.0
C2315 C 0.76843 0.40165 0.78186 0.0
C2316 C 0.77779 0.40996 0.76166 0.0
C2317 C 0.80399 0.40759 0.762 0.0
C2318 C 0.80812 0.39583 0.7382 0.0
C2319 C 0.82173 0.43151 0.76803 0.0
C2320 C 0.806 0.39243 0.7826 0.0
C2321 C 0.78599 0.39058 0.79487 0.0
C2322 C 0.78102 0.37368 0.81106 0.0
C2323 C 0.7957 0.35742 0.81357 0.0
C2324 C 0.81524 0.3584 0.80024 0.0
C2325 C 0.82136 0.37679 0.78574 0.0
H2326 H 1.00246 0.3196 0.94118 0.0
H2327 H 0.067 0.30619 0.91384 0.0
H2328 H 0.081 0.34819 0.90936 0.0
H2329 H 0.99277 0.3638 0.9019 0.0
H2330 H 0.98286 0.38119 0.92432 0.0
H2331 H 0.97788 0.35004 0.92547 0.0
H2332 H 1.00093 0.35584 0.96874 0.0
H2333 H 1.00577 0.38698 0.96781 0.0
H2334 H 1.03147 0.37383 0.97478 0.0
H2335 H 0.08872 0.39183 0.90928 0.0
H2336 H 0.08929 0.43408 0.91358 0.0
H2337 H 1.01904 0.41837 0.93934 0.0
C2338 C 1.01958 0.32549 0.93433 0.0
C2339 C 1.03368 0.30965 0.92794 0.0
C2340 C 0.05589 0.31804 0.91886 0.0
C2341 C 0.06399 0.34184 0.91621 0.0
C2342 C 0.04955 0.35695 0.9225 0.0
C2343 C 1.02781 0.34912 0.93134 0.0
C2344 C 1.01576 0.36897 0.93686 0.0
C2345 C 0.99084 0.3658 0.9212 0.0
C2346 C 1.01336 0.37156 0.96364 0.0
C2347 C 0.03424 0.38921 0.92996 0.0
C2348 C 0.05363 0.38196 0.92175 0.0
C2349 C 0.07352 0.39772 0.91544 0.0
C2350 C 0.07371 0.42159 0.91791 0.0
C2351 C 0.05404 0.42929 0.92639 0.0
C2352 C 1.03399 0.41285 0.9322 0.0
H2353 H 0.05749 0.85783 0.19183 0.0
H2354 H 0.10608 0.91471 0.23795 0.0
H2355 H 0.0764 0.911 0.26693 0.0
H2356 H 1.0004 0.87227 0.20349 0.0
H2357 H 0.98486 0.84205 0.20268 0.0
H2358 H 1.00929 0.8504 0.18511 0.0
H2359 H 1.03187 0.82107 0.20526 0.0
H2360 H 1.00762 0.81274 0.22298 0.0
H2361 H 0.03865 0.82307 0.23742 0.0
H2362 H 0.04226 0.899 0.29207 0.0
H2363 H 1.00576 0.88096 0.31015 0.0
H2364 H 0.98047 0.8322 0.24709 0.0
C2365 C 0.06183 0.86974 0.20787 0.0
C2366 C 0.0841 0.88656 0.21264 0.0
C2367 C 0.08908 0.90172 0.2339 0.0
C2368 C 0.07236 0.89973 0.25047 0.0
C2369 C 0.05077 0.88259 0.24539 0.0
C2370 C 0.04543 0.868 0.22449 0.0
C2371 C 1.02142 0.85053 0.22347 0.0
C2372 C 1.0029 0.85404 0.20244 0.0
C2373 C 1.02513 0.82537 0.22222 0.0
C2374 C 1.01416 0.85733 0.2472 0.0
C2375 C 1.03124 0.87586 0.25964 0.0
C2376 C 1.02868 0.8846 0.2824 0.0
C2377 C 1.00803 0.87419 0.29258 0.0
C2378 C 0.99027 0.85533 0.27992 0.0
C2379 C 0.99352 0.84687 0.257 0.0
H2380 H 0.58229 0.40535 0.14551 0.0
H2381 H 0.57103 0.35447 0.08441 0.0
H2382 H 0.57241 0.3865 0.05745 0.0
H2383 H 0.54564 0.44329 0.11843 0.0
H2384 H 0.5657 0.46986 0.13262 0.0
H2385 H 0.56385 0.44307 0.14691 0.0
H2386 H 0.61055 0.44796 0.14908 0.0
H2387 H 0.61249 0.47475 0.13478 0.0
H2388 H 0.6244 0.45151 0.12208 0.0
H2389 H 0.57476 0.42572 0.03645 0.0
H2390 H 0.57789 0.4658 0.02435 0.0
H2391 H 0.5881 0.49212 0.09894 0.0
C2392 C 0.5801 0.40074 0.12644 0.0
C2393 C 0.57651 0.37673 0.11744 0.0
C2394 C 0.57379 0.37222 0.09218 0.0
C2395 C 0.57456 0.39054 0.07661 0.0
C2396 C 0.57811 0.41382 0.08615 0.0
C2397 C 0.58085 0.4189 0.11061 0.0
C2398 C 0.58445 0.44536 0.11646 0.0
C2399 C 0.56367 0.45071 0.12937 0.0
C2400 C 0.60946 0.45549 0.13149 0.0
C2401 C 0.58336 0.45454 0.09157 0.0
C2402 C 0.57963 0.43602 0.07431 0.0
C2403 C 0.57774 0.44013 0.05003 0.0
C2404 C 0.57958 0.46327 0.04325 0.0
C2405 C 0.58344 0.48286 0.06037 0.0
C2406 C 0.58536 0.47802 0.08505 0.0
H2407 H 1.00541 0.31913 0.3961 0.0
H2408 H 1.02789 0.26801 0.35112 0.0
H2409 H 0.98904 0.26332 0.32335 0.0
H2410 H 0.94256 0.29283 0.39014 0.0
H2411 H 0.93232 0.31974 0.38915 0.0
H2412 H 0.96204 0.31956 0.40468 0.0
H2413 H 0.98219 0.35121 0.37895 0.0
H2414 H 0.95249 0.35172 0.36353 0.0
H2415 H 0.97613 0.34638 0.34678 0.0
H2416 H 0.94439 0.26162 0.3026 0.0
H2417 H 0.90288 0.26702 0.28833 0.0
H2418 H 0.91139 0.32185 0.3452 0.0
C2419 C 1.0024 0.30721 0.38016 0.0
C2420 C 1.01998 0.294 0.37583 0.0
C2421 C 1.01508 0.27857 0.35477 0.0
C2422 C 0.99286 0.27567 0.339 0.0
C2423 C 0.97572 0.28865 0.34415 0.0
C2424 C 0.98064 0.30454 0.36402 0.0
C2425 C 0.95961 0.31672 0.36558 0.0
C2426 C 0.94848 0.31192 0.38876 0.0
C2427 C 0.96811 0.34307 0.36358 0.0
C2428 C 0.94173 0.30501 0.34372 0.0
C2429 C 0.95116 0.28862 0.33171 0.0
C2430 C 0.93722 0.27472 0.31177 0.0
C2431 C 0.91348 0.27784 0.3038 0.0
C2432 C 0.90369 0.29505 0.31534 0.0
C2433 C 0.91827 0.30876 0.33563 0.0
H2434 H 0.07441 0.70764 0.64439 0.0
H2435 H 0.05824 0.74585 0.58335 0.0
H2436 H 0.05872 0.71113 0.55631 0.0
H2437 H 0.11611 0.67735 0.61752 0.0
H2438 H 0.10641 0.6512 0.63212 0.0
H2439 H 0.10498 0.6791 0.64592 0.0
H2440 H 0.05906 0.66305 0.64815 0.0
H2441 H 0.06054 0.63536 0.6339 0.0
H2442 H 0.03867 0.65104 0.62114 0.0
H2443 H 0.05999 0.67015 0.5355 0.0
H2444 H 0.06348 0.63015 0.52361 0.0
H2445 H 0.08025 0.61848 0.59826 0.0
C2446 C 0.0709 0.70892 0.62531 0.0
C2447 C 0.06605 0.73005 0.61632 0.0
C2448 C 0.06195 0.73036 0.59107 0.0
C2449 C 0.06216 0.71049 0.57549 0.0
C2450 C 0.06681 0.69005 0.58508 0.0
C2451 C 0.07136 0.68933 0.60954 0.0
C2452 C 0.07639 0.66554 0.61554 0.0
C2453 C 0.10252 0.66848 0.62855 0.0
C2454 C 0.05753 0.65301 0.63057 0.0
C2455 C 0.07351 0.6526 0.59071 0.0
C2456 C 0.06801 0.66709 0.57336 0.0
C2457 C 0.06436 0.65894 0.54913 0.0
C2458 C 0.06637 0.63588 0.54249 0.0
C2459 C 0.07211 0.62044 0.55972 0.0
C2460 C 0.07577 0.62934 0.58433 0.0
H2461 H 0.66968 0.7607 0.86984 0.0
H2462 H 0.66216 0.83243 0.8758 0.0
H2463 H 0.69798 0.84383 0.85425 0.0
H2464 H 0.73587 0.7731 0.87828 0.0
H2465 H 0.73762 0.74971 0.85706 0.0
H2466 H 0.71146 0.7473 0.87273 0.0
H2467 H 0.68288 0.73996 0.83236 0.0
H2468 H 0.70896 0.74237 0.81657 0.0
H2469 H 0.68767 0.76074 0.81023 0.0
H2470 H 0.73662 0.84752 0.83189 0.0
H2471 H 0.77182 0.84311 0.8116 0.0
H2472 H 0.75435 0.76875 0.81914 0.0
C2473 C 0.67541 0.77888 0.86665 0.0
C2474 C 0.66251 0.7956 0.87486 0.0
C2475 C 0.6712 0.81911 0.86996 0.0
C2476 C 0.69175 0.82577 0.85763 0.0
C2477 C 0.70393 0.80886 0.84991 0.0
C2478 C 0.69592 0.78582 0.85425 0.0
C2479 C 0.71212 0.77094 0.84412 0.0
C2480 C 0.72503 0.75959 0.86425 0.0
C2481 C 0.697 0.7524 0.82467 0.0
C2482 C 0.73059 0.78906 0.83339 0.0
C2483 C 0.72557 0.81088 0.83699 0.0
C2484 C 0.74039 0.8304 0.82903 0.0
C2485 C 0.76056 0.82769 0.81736 0.0
C2486 C 0.76632 0.80555 0.81323 0.0
C2487 C 0.75073 0.78598 0.82151 0.0
H2488 H 0.43757 0.53783 0.62817 0.0
H2489 H 0.46815 0.55978 0.70192 0.0
H2490 H 0.50495 0.58364 0.68891 0.0
H2491 H 0.48553 0.52787 0.60827 0.0
H2492 H 0.48238 0.53937 0.57943 0.0
H2493 H 0.45592 0.53001 0.59379 0.0
H2494 H 0.44585 0.57074 0.59105 0.0
H2495 H 0.47246 0.58021 0.57653 0.0
H2496 H 0.46858 0.59651 0.60316 0.0
H2497 H 0.54206 0.59353 0.66918 0.0
H2498 H 0.57443 0.59365 0.64346 0.0
H2499 H 0.51868 0.56938 0.58214 0.0
C2500 C 0.45146 0.54882 0.64134 0.0
C2501 C 0.45017 0.54747 0.66588 0.0
C2502 C 0.46883 0.56119 0.68298 0.0
C2503 C 0.48975 0.57475 0.67575 0.0
C2504 C 0.49124 0.57487 0.65135 0.0
C2505 C 0.47215 0.56298 0.6343 0.0
C2506 C 0.47949 0.56353 0.60948 0.0
C2507 C 0.47563 0.53873 0.59707 0.0
C2508 C 0.46578 0.57866 0.59417 0.0
C2509 C 0.50628 0.57517 0.61562 0.0
C2510 C 0.51272 0.58204 0.63975 0.0
C2511 C 0.53717 0.58924 0.65009 0.0
C2512 C 0.55545 0.58909 0.63544 0.0
C2513 C 0.54904 0.58189 0.61079 0.0
C2514 C 0.52418 0.57569 0.60078 0.0
H2515 H 0.79873 0.26167 0.95636 0.0
H2516 H 0.87027 0.24878 0.98001 0.0
H2517 H 0.88404 0.26155 0.94218 0.0
H2518 H 0.79488 0.23912 0.89704 0.0
H2519 H 0.77928 0.26003 0.88398 0.0
H2520 H 0.77578 0.25255 0.91397 0.0
H2521 H 0.79038 0.29617 0.92973 0.0
H2522 H 0.79373 0.30382 0.89973 0.0
H2523 H 0.81925 0.31264 0.92328 0.0
H2524 H 0.88926 0.27333 0.90122 0.0
H2525 H 0.88547 0.28285 0.85922 0.0
H2526 H 0.81 0.28665 0.86174 0.0
C2527 C 0.81745 0.26204 0.95378 0.0
C2528 C 0.83353 0.25446 0.97111 0.0
C2529 C 0.85771 0.25461 0.96692 0.0
C2530 C 0.86571 0.26188 0.94556 0.0
C2531 C 0.84925 0.26879 0.92862 0.0
C2532 C 0.82563 0.26894 0.93245 0.0
C2533 C 0.81106 0.2755 0.91065 0.0
C2534 C 0.78895 0.25561 0.90084 0.0
C2535 C 0.80315 0.2984 0.91618 0.0
C2536 C 0.83009 0.27869 0.89386 0.0
C2537 C 0.85206 0.27501 0.90467 0.0
C2538 C 0.87223 0.27647 0.89259 0.0
C2539 C 0.86988 0.28189 0.86877 0.0
C2540 C 0.84744 0.28553 0.85729 0.0
C2541 C 0.82735 0.28392 0.87005 0.0
H2542 H 0.11484 0.46467 0.15543 0.0
H2543 H 0.04003 0.4406 0.16792 0.0
H2544 H 1.02613 0.43777 0.12479 0.0
H2545 H 0.10749 0.50257 0.12133 0.0
H2546 H 0.1273 0.49904 0.09942 0.0
H2547 H 0.13293 0.489 0.12835 0.0
H2548 H 0.13106 0.44794 0.10904 0.0
H2549 H 0.12466 0.4573 0.07953 0.0
H2550 H 0.10434 0.43266 0.08903 0.0
H2551 H 1.01893 0.45322 0.08678 0.0
H2552 H 1.02005 0.48161 0.05621 0.0
H2553 H 0.09877 0.49392 0.06477 0.0
C2554 C 0.09579 0.45734 0.14877 0.0
C2555 C 0.07849 0.45293 0.16479 0.0
C2556 C 0.05355 0.44409 0.15582 0.0
C2557 C 0.0455 0.44228 0.13128 0.0
C2558 C 0.06266 0.44909 0.1159 0.0
C2559 C 0.0875 0.45569 0.12416 0.0
C2560 C 0.10153 0.46667 0.10497 0.0
C2561 C 0.11823 0.49073 0.11408 0.0
C2562 C 0.11628 0.45015 0.09507 0.0
C2563 C 0.08051 0.46863 0.0864 0.0
C2564 C 0.05825 0.4574 0.0925 0.0
C2565 C 0.03617 0.46103 0.08105 0.0
C2566 C 0.03688 0.47722 0.06378 0.0
C2567 C 0.05946 0.48917 0.05798 0.0
C2568 C 0.08135 0.48405 0.06848 0.0
H2569 H 0.83587 0.85843 0.47349 0.0
H2570 H 0.77795 0.89545 0.45886 0.0
H2571 H 0.77292 0.88128 0.41588 0.0
H2572 H 0.86273 0.87071 0.41996 0.0
H2573 H 0.87052 0.84275 0.41622 0.0
H2574 H 0.86869 0.85498 0.44567 0.0
H2575 H 0.83737 0.81769 0.45229 0.0
H2576 H 0.83913 0.80532 0.42285 0.0
H2577 H 0.80998 0.80781 0.43108 0.0
H2578 H 0.77479 0.86243 0.37294 0.0
H2579 H 0.78377 0.84275 0.33634 0.0
H2580 H 0.84141 0.81889 0.37882 0.0
C2581 C 0.82188 0.86348 0.4614 0.0
C2582 C 0.80711 0.87809 0.47015 0.0
C2583 C 0.78942 0.88427 0.45314 0.0
C2584 C 0.78648 0.87625 0.4285 0.0
C2585 C 0.80143 0.86201 0.42063 0.0
C2586 C 0.81886 0.85577 0.43673 0.0
C2587 C 0.83318 0.84087 0.42383 0.0
C2588 C 0.86039 0.85306 0.42659 0.0
C2589 C 0.8297 0.81647 0.43307 0.0
C2590 C 0.8212 0.83955 0.39789 0.0
C2591 C 0.80282 0.85177 0.39637 0.0
C2592 C 0.7892 0.85292 0.37419 0.0
C2593 C 0.79446 0.84156 0.3533 0.0
C2594 C 0.81339 0.82905 0.35416 0.0
C2595 C 0.82681 0.82816 0.3771 0.0
H2596 H 0.46901 0.48543 0.76451 0.0
H2597 H 0.40681 0.51245 0.78105 0.0
H2598 H 0.42457 0.51926 0.82356 0.0
H2599 H 0.47826 0.45703 0.8203 0.0
H2600 H 0.51107 0.4649 0.82225 0.0
H2601 H 0.49236 0.46005 0.79342 0.0
H2602 H 0.51344 0.5012 0.78316 0.0
H2603 H 0.53206 0.50624 0.81199 0.0
H2604 H 0.51345 0.52636 0.80288 0.0
H2605 H 0.44998 0.5254 0.86363 0.0
H2606 H 0.48132 0.52985 0.89905 0.0
H2607 H 0.5277 0.50027 0.85621 0.0
C2608 C 0.45891 0.49235 0.77715 0.0
C2609 C 0.43651 0.49834 0.76949 0.0
C2610 C 0.42402 0.50773 0.78651 0.0
C2611 C 0.43392 0.51163 0.81071 0.0
C2612 C 0.45629 0.50603 0.8176 0.0
C2613 C 0.46861 0.4965 0.80138 0.0
C2614 C 0.49299 0.49325 0.81329 0.0
C2615 C 0.4937 0.46726 0.81225 0.0
C2616 C 0.51423 0.50763 0.80217 0.0
C2617 C 0.49261 0.50288 0.83859 0.0
C2618 C 0.47119 0.50996 0.84073 0.0
C2619 C 0.46683 0.51986 0.86224 0.0
C2620 C 0.48484 0.52254 0.88218 0.0
C2621 C 0.50702 0.5155 0.88041 0.0
C2622 C 0.51083 0.50554 0.85826 0.0
H2623 H 0.79649 0.25297 0.10697 0.0
H2624 H 0.87181 0.25903 0.09538 0.0
H2625 H 0.88573 0.27463 0.13759 0.0
H2626 H 0.80575 0.30412 0.14942 0.0
H2627 H 0.78385 0.28965 0.16737 0.0
H2628 H 0.78018 0.28143 0.13573 0.0
H2629 H 0.77901 0.23845 0.1444 0.0
H2630 H 0.7828 0.24656 0.17603 0.0
H2631 H 0.80391 0.23176 0.16383 0.0
H2632 H 0.89112 0.2893 0.18143 0.0
H2633 H 0.8873 0.29854 0.22399 0.0
H2634 H 0.80838 0.27925 0.20676 0.0
C2635 C 0.81592 0.258 0.11323 0.0
C2636 C 0.83314 0.25516 0.098 0.0
C2637 C 0.85839 0.26125 0.10688 0.0
C2638 C 0.86644 0.27017 0.13074 0.0
C2639 C 0.84894 0.2725 0.14544 0.0
C2640 C 0.8242 0.26637 0.13706 0.0
C2641 C 0.80903 0.26867 0.15685 0.0
C2642 C 0.79381 0.28707 0.15205 0.0
C2643 C 0.79273 0.24495 0.16049 0.0
C2644 C 0.82907 0.2769 0.17772 0.0
C2645 C 0.85199 0.27945 0.17079 0.0
C2646 C 0.87327 0.28727 0.18708 0.0
C2647 C 0.87096 0.29248 0.21112 0.0
C2648 C 0.84759 0.28928 0.2185 0.0
C2649 C 0.82648 0.28147 0.20157 0.0
H2650 H 0.1183 0.46792 0.31172 0.0
H2651 H 0.04721 0.42912 0.27816 0.0
H2652 H 0.03419 0.42319 0.3177 0.0
H2653 H 0.11764 0.43866 0.3737 0.0
H2654 H 0.13217 0.46683 0.38896 0.0
H2655 H 0.13988 0.45857 0.36017 0.0
H2656 H 0.12943 0.49609 0.34429 0.0
H2657 H 0.12133 0.50424 0.37258 0.0
H2658 H 0.09943 0.50142 0.34594 0.0
H2659 H 1.02415 0.43317 0.35691 0.0
H2660 H 1.01851 0.45712 0.39205 0.0
H2661 H 0.09517 0.49173 0.40081 0.0
C2662 C 0.10065 0.45681 0.31298 0.0
C2663 C 0.08383 0.44865 0.2922 0.0
C2664 C 0.0604 0.43516 0.29406 0.0
C2665 C 0.05291 0.43167 0.31648 0.0
C2666 C 0.06906 0.44192 0.33682 0.0
C2667 C 0.09274 0.45387 0.33533 0.0
C2668 C 0.10441 0.46795 0.35872 0.0
C2669 C 0.12472 0.45736 0.37112 0.0
C2670 C 0.11416 0.49393 0.35514 0.0
C2671 C 0.0827 0.46446 0.37234 0.0
C2672 C 0.06287 0.44846 0.35995 0.0
C2673 C 0.03975 0.44514 0.36716 0.0
C2674 C 0.03661 0.45904 0.38694 0.0
C2675 C 0.05642 0.47628 0.39908 0.0
C2676 C 0.07987 0.47825 0.39224 0.0
H2677 H 0.84774 0.88505 0.62189 0.0
H2678 H 0.77005 0.87912 0.60271 0.0
H2679 H 0.7627 0.86057 0.64039 0.0
H2680 H 0.84541 0.83176 0.64957 0.0
H2681 H 0.87008 0.84364 0.67331 0.0
H2682 H 0.86906 0.85637 0.64507 0.0
H2683 H 0.87096 0.89671 0.66674 0.0
H2684 H 0.87216 0.88412 0.69507 0.0
H2685 H 0.84878 0.8997 0.68631 0.0
H2686 H 0.76413 0.83847 0.67994 0.0
H2687 H 0.77418 0.82131 0.71801 0.0
H2688 H 0.85126 0.84566 0.71399 0.0
C2689 C 0.82912 0.88008 0.62564 0.0
C2690 C 0.80945 0.88371 0.60884 0.0
C2691 C 0.78551 0.87688 0.61495 0.0
C2692 C 0.78119 0.86611 0.63642 0.0
C2693 C 0.80097 0.86254 0.65233 0.0
C2694 C 0.82456 0.8699 0.64735 0.0
C2695 C 0.84283 0.86488 0.66765 0.0
C2696 C 0.85773 0.84817 0.65834 0.0
C2697 C 0.85968 0.88771 0.67965 0.0
C2698 C 0.826 0.85318 0.68476 0.0
C2699 C 0.80185 0.85162 0.67544 0.0
C2700 C 0.78304 0.84011 0.68738 0.0
C2701 C 0.78893 0.83027 0.70913 0.0
C2702 C 0.81352 0.83226 0.7196 0.0
C2703 C 0.83223 0.84408 0.70699 0.0
H2704 H 0.78168 0.44322 0.59788 0.0
H2705 H 0.80248 0.45825 0.52807 0.0
H2706 H 0.78395 0.49252 0.52886 0.0
H2707 H 0.72264 0.45908 0.58782 0.0
H2708 H 0.72587 0.47043 0.61866 0.0
H2709 H 0.74061 0.44755 0.61081 0.0
H2710 H 0.78116 0.47458 0.63286 0.0
H2711 H 0.76579 0.49775 0.63839 0.0
H2712 H 0.7919 0.50289 0.62253 0.0
H2713 H 0.76496 0.52589 0.53787 0.0
H2714 H 0.74199 0.55371 0.55192 0.0
H2715 H 0.72997 0.51526 0.61438 0.0
C2716 C 0.78231 0.45372 0.58275 0.0
C2717 C 0.7936 0.44813 0.56294 0.0
C2718 C 0.79387 0.46217 0.54341 0.0
C2719 C 0.78353 0.48175 0.54375 0.0
C2720 C 0.77276 0.48691 0.56364 0.0
C2721 C 0.77174 0.47315 0.58263 0.0
C2722 C 0.75827 0.48212 0.60141 0.0
C2723 C 0.73546 0.46369 0.60481 0.0
C2724 C 0.77531 0.48979 0.62521 0.0
C2725 C 0.75159 0.50293 0.58983 0.0
C2726 C 0.7606 0.50557 0.56829 0.0
C2727 C 0.75747 0.52381 0.55452 0.0
C2728 C 0.74421 0.53944 0.56262 0.0
C2729 C 0.73365 0.53653 0.58406 0.0
C2730 C 0.73783 0.51816 0.59801 0.0
H2731 H 0.25943 0.16664 0.54976 0.0
H2732 H 0.28841 0.11776 0.50803 0.0
H2733 H 0.24931 0.08836 0.50654 0.0
H2734 H 0.2265 0.12342 0.58525 0.0
H2735 H 0.20155 0.13786 0.58612 0.0
H2736 H 0.23175 0.1546 0.58399 0.0
H2737 H 0.21478 0.17135 0.54579 0.0
H2738 H 0.18456 0.15462 0.54774 0.0
H2739 H 0.19802 0.15164 0.5208 0.0
H2740 H 0.20438 0.06538 0.5067 0.0
H2741 H 0.1612 0.05003 0.51199 0.0
H2742 H 0.16278 0.11257 0.55684 0.0
C2743 C 0.25772 0.14968 0.54042 0.0
C2744 C 0.27729 0.14471 0.52889 0.0
C2745 C 0.27402 0.12214 0.51709 0.0
C2746 C 0.2517 0.10533 0.51609 0.0
C2747 C 0.23274 0.111 0.52737 0.0
C2748 C 0.2358 0.13258 0.53971 0.0
C2749 C 0.21289 0.13438 0.55071 0.0
C2750 C 0.21852 0.13776 0.57815 0.0
C2751 C 0.20192 0.15417 0.54066 0.0
C2752 C 0.19616 0.1106 0.5424 0.0
C2753 C 0.20783 0.09743 0.52871 0.0
C2754 C 0.19542 0.07549 0.51777 0.0
C2755 C 0.17076 0.06686 0.52088 0.0
C2756 C 0.15848 0.07972 0.53526 0.0
C2757 C 0.17165 0.10191 0.54626 0.0
H2758 H 0.33063 0.04609 0.85568 0.0
H2759 H 0.2798 0.06032 0.79728 0.0
H2760 H 0.28847 0.02876 0.77156 0.0
H2761 H 0.37507 0.03146 0.81906 0.0
H2762 H 0.38125 1.0086 0.83714 0.0
H2763 H 0.37231 0.0334 0.85049 0.0
H2764 H 0.33643 1.0057 0.86592 0.0
H2765 H 0.34524 0.98085 0.85264 0.0
H2766 H 0.31462 0.98486 0.84499 0.0
H2767 H 0.30036 0.99398 0.75313 0.0
H2768 H 0.31533 0.9586 0.74315 0.0
H2769 H 0.35852 0.96741 0.81338 0.0
C2770 C 0.32156 0.04279 0.83739 0.0
C2771 C 0.30458 0.05569 0.82849 0.0
C2772 C 0.29291 0.05067 0.8045 0.0
C2773 C 0.29774 0.03281 0.78972 0.0
C2774 C 0.31435 0.02024 0.79916 0.0
C2775 C 0.32616 0.02504 0.82239 0.0
C2776 C 0.34238 1.00826 0.82848 0.0
C2777 C 0.36935 0.02121 0.83412 0.0
C2778 C 0.33416 0.99408 0.84923 0.0
C2779 C 0.33755 0.99308 0.80515 0.0
C2780 C 0.3214 1.00031 0.78843 0.0
C2781 C 0.31324 0.98828 0.76596 0.0
C2782 C 0.32172 0.96821 0.76049 0.0
C2783 C 0.3382 0.96048 0.77744 0.0
C2784 C 0.34634 0.97324 0.79993 0.0
H2785 H 0.443 0.91735 0.05037 0.0
H2786 H 0.38869 0.95802 0.03244 0.0
H2787 H 0.42133 0.99385 0.03645 0.0
H2788 H 0.48299 0.96054 0.09433 0.0
H2789 H 0.51046 0.9539 0.08555 0.0
H2790 H 0.48272 0.9315 0.08218 0.0
H2791 H 0.48554 0.92406 0.03706 0.0
H2792 H 0.51336 0.94625 0.04035 0.0
H2793 H 0.48798 0.9481 0.01846 0.0
H2794 H 0.45989 0.02467 0.04005 0.0
H2795 H 0.50193 0.04838 0.04227 0.0
H2796 H 0.53071 0.98771 0.0592 0.0
C2797 C 0.43791 0.93381 0.04735 0.0
C2798 C 0.41329 0.93491 0.04107 0.0
C2799 C 0.40742 0.95676 0.03726 0.0
C2800 C 0.42583 0.9772 0.03959 0.0
C2801 C 0.4499 0.97548 0.0459 0.0
C2802 C 0.45599 0.95435 0.04972 0.0
C2803 C 0.48332 0.95714 0.05554 0.0
C2804 C 0.49027 0.95037 0.08091 0.0
C2805 C 0.49311 0.94306 0.03673 0.0
C2806 C 0.49167 0.9831 0.05398 0.0
C2807 C 0.47212 0.99338 0.0485 0.0
C2808 C 0.47534 1.01692 0.04464 0.0
C2809 C 0.49924 0.03021 0.04594 0.0
C2810 C 0.51946 0.01987 0.05114 0.0
C2811 C 0.51558 0.99617 0.0557 0.0
H2812 H 0.96651 0.64753 0.82861 0.0
H2813 H 1.0113 0.65959 0.77156 0.0
H2814 H 0.97812 0.67237 0.74707 0.0
H2815 H 0.90894 0.62574 0.79141 0.0
H2816 H 0.89196 0.64013 0.81 0.0
H2817 H 0.91911 0.63168 0.8231 0.0
H2818 H 0.93779 0.67431 0.84069 0.0
H2819 H 0.91057 0.68279 0.82791 0.0
H2820 H 0.93997 0.69753 0.82106 0.0
H2821 H 0.93982 0.68333 0.72853 0.0
H2822 H 0.90039 0.69443 0.7185 0.0
H2823 H 0.88139 0.67665 0.78832 0.0
C2824 C 0.96936 0.65287 0.81098 0.0
C2825 C 0.99149 0.65248 0.80199 0.0
C2826 C 0.99453 0.65977 0.77887 0.0
C2827 C 0.97575 0.66696 0.76476 0.0
C2828 C 0.95408 0.66688 0.77406 0.0
C2829 C 0.95089 0.66027 0.79673 0.0
C2830 C 0.9261 0.66244 0.80276 0.0
C2831 C 0.91062 0.63857 0.80707 0.0
C2832 C 0.92878 0.68034 0.82438 0.0
C2833 C 0.91585 0.67125 0.77993 0.0
C2834 C 0.93219 0.67356 0.76354 0.0
C2835 C 0.92689 0.68165 0.74125 0.0
C2836 C 0.90445 0.68798 0.73575 0.0
C2837 C 0.88766 0.68641 0.75257 0.0
C2838 C 0.89347 0.67762 0.77481 0.0
H2839 H 0.95642 0.66678 0.05689 0.0
H2840 H 0.89394 0.62014 1.01434 0.0
H2841 H 0.91963 0.59176 1.00774 0.0
H2842 H 1.00227 0.65463 0.02144 0.0
H2843 H 1.02536 0.65624 0.04687 0.0
H2844 H 1.00215 0.67278 0.04817 0.0
H2845 H 0.99025 0.65346 0.08625 0.0
H2846 H 1.01341 0.63686 0.08497 0.0
H2847 H 0.98213 0.62207 0.08557 0.0
H2848 H 0.95351 0.56811 1.00504 0.0
H2849 H 0.99039 0.55178 1.00746 0.0
H2850 H 1.03127 0.61305 0.05267 0.0
C2851 C 0.94796 0.65059 0.04619 0.0
C2852 C 0.92269 0.64602 0.03617 0.0
C2853 C 0.91292 0.6244 0.02233 0.0
C2854 C 0.92755 0.60807 0.01845 0.0
C2855 C 0.95226 0.6132 0.02852 0.0
C2856 C 0.96235 0.634 0.04222 0.0
C2857 C 0.98939 0.63532 0.05113 0.0
C2858 C 1.00576 0.65597 0.04132 0.0
C2859 C 0.99407 0.63703 0.07861 0.0
C2860 C 0.99304 0.61205 0.04046 0.0
C2861 C 0.97139 0.5996 0.02733 0.0
C2862 C 0.97038 0.57783 0.01542 0.0
C2863 C 0.99164 0.5686 0.01691 0.0
C2864 C 1.01418 0.58075 0.03038 0.0
C2865 C 1.01456 0.60293 0.04233 0.0
H2866 H 0.31777 0.19655 0.9004 0.0
H2867 H 0.34451 0.14767 0.8565 0.0
H2868 H 0.37306 0.18025 0.84288 0.0
H2869 H 0.3075 0.22855 0.86083 0.0
H2870 H 0.31623 0.25698 0.87712 0.0
H2871 H 0.3079 0.23171 0.89283 0.0
H2872 H 0.34944 0.24273 0.92041 0.0
H2873 H 0.35785 0.26854 0.90484 0.0
H2874 H 0.3775 0.24819 0.90755 0.0
H2875 H 0.38567 0.21553 0.82262 0.0
H2876 H 0.38077 0.2487 0.79901 0.0
H2877 H 0.34434 0.27524 0.85366 0.0
C2878 C 0.33065 0.19269 0.88898 0.0
C2879 C 0.32867 0.1697 0.87921 0.0
C2880 C 0.34563 0.1652 0.86419 0.0
C2881 C 0.36204 0.18369 0.8564 0.0
C2882 C 0.36143 0.20651 0.86401 0.0
C2883 C 0.34651 0.21106 0.88055 0.0
C2884 C 0.34437 0.23628 0.88143 0.0
C2885 C 0.31743 0.23845 0.87778 0.0
C2886 C 0.35812 0.24973 0.90495 0.0
C2887 C 0.35735 0.24417 0.86054 0.0
C2888 C 0.36838 0.22732 0.85161 0.0
C2889 C 0.37793 0.22919 0.82996 0.0
C2890 C 0.37504 0.24802 0.81659 0.0
C2891 C 0.36217 0.26423 0.82475 0.0
C2892 C 0.35445 0.26298 0.84742 0.0
H2893 H 0.49973 0.06151 0.32895 0.0
H2894 H 0.56765 0.04029 0.32241 0.0
H2895 H 0.5454 0.99906 0.31673 0.0
H2896 H 0.47523 1.01409 0.36287 0.0
H2897 H 0.44414 1.01087 0.34893 0.0
H2898 H 0.46513 0.0389 0.35149 0.0
H2899 H 0.45628 0.04096 0.3057 0.0
H2900 H 0.43528 1.01291 0.30298 0.0
H2901 H 0.46036 1.01757 0.28574 0.0
H2902 H 0.5161 0.96035 0.31115 0.0
H2903 H 0.48182 0.92605 0.30901 0.0
H2904 H 0.43283 0.97161 0.32111 0.0
C2905 C 0.50987 0.04817 0.32619 0.0
C2906 C 0.53543 0.05413 0.32599 0.0
C2907 C 0.5481 0.03616 0.32268 0.0
C2908 C 0.53561 1.01268 0.31934 0.0
C2909 C 0.51046 1.00739 0.31965 0.0
C2910 C 0.49772 0.02454 0.32324 0.0
C2911 C 0.47087 1.01392 0.32376 0.0
C2912 C 0.46341 0.0198 0.34822 0.0
C2913 C 0.45475 0.02181 0.30332 0.0
C2914 C 0.47056 0.98814 0.31981 0.0
C2915 C 0.49358 0.98485 0.31724 0.0
C2916 C 0.49798 0.96269 0.31315 0.0
C2917 C 0.47838 0.94333 0.31182 0.0
C2918 C 0.45467 0.94617 0.31478 0.0
C2919 C 0.45078 0.96893 0.31885 0.0
H2920 H 0.67699 0.4331 0.62203 0.0
H2921 H 0.61603 0.39535 0.65411 0.0
H2922 H 0.58948 0.41911 0.63467 0.0
H2923 H 0.66444 0.48787 0.63178 0.0
H2924 H 0.67463 0.49809 0.60449 0.0
H2925 H 0.68686 0.47579 0.61867 0.0
H2926 H 0.67354 0.44942 0.57835 0.0
H2927 H 0.66042 0.47175 0.56496 0.0
H2928 H 0.64187 0.44278 0.56521 0.0
H2929 H 0.57108 0.4503 0.61599 0.0
H2930 H 0.56316 0.48686 0.60028 0.0
H2931 H 0.63635 0.50319 0.58085 0.0
C2932 C 0.65794 0.42941 0.62449 0.0
C2933 C 0.64855 0.41236 0.63944 0.0
C2934 C 0.62359 0.40837 0.64263 0.0
C2935 C 0.60831 0.42164 0.63159 0.0
C2936 C 0.6183 0.43872 0.61736 0.0
C2937 C 0.64254 0.44257 0.61377 0.0
C2938 C 0.64958 0.46352 0.59988 0.0
C2939 C 0.67007 0.48243 0.61457 0.0
C2940 C 0.65676 0.45643 0.57565 0.0
C2941 C 0.62574 0.4712 0.5968 0.0
C2942 C 0.60775 0.45663 0.60669 0.0
C2943 C 0.58488 0.46164 0.6078 0.0
C2944 C 0.58054 0.48239 0.59893 0.0
C2945 C 0.59919 0.49778 0.58956 0.0
C2946 C 0.62173 0.49174 0.58798 0.0
H2947 H 0.42211 0.70402 0.36644 0.0
H2948 H 0.48338 0.71482 0.32626 0.0
H2949 H 0.45719 0.72431 0.29181 0.0
H2950 H 0.36926 0.68711 0.31358 0.0
H2951 H 0.3524 0.70457 0.32896 0.0
H2952 H 0.37216 0.68913 0.34579 0.0
H2953 H 0.39383 0.72791 0.37013 0.0
H2954 H 0.37591 0.74423 0.35278 0.0
H2955 H 0.40863 0.75201 0.35496 0.0
H2956 H 0.42902 0.74389 0.2672 0.0
H2957 H 0.40171 0.77043 0.25539 0.0
H2958 H 0.36051 0.74948 0.31293 0.0
C2959 C 0.42966 0.707 0.34992 0.0
C2960 C 0.45474 0.70871 0.34905 0.0
C2961 C 0.46414 0.71331 0.32731 0.0
C2962 C 0.44933 0.7187 0.30758 0.0
C2963 C 0.4252 0.71925 0.30987 0.0
C2964 C 0.41531 0.7131 0.33046 0.0
C2965 C 0.39138 0.72038 0.33119 0.0
C2966 C 0.37003 0.69901 0.32978 0.0
C2967 C 0.39254 0.7371 0.35357 0.0
C2968 C 0.39004 0.73278 0.3086 0.0
C2969 C 0.40923 0.73141 0.29605 0.0
C2970 C 0.41346 0.7444 0.27641 0.0
C2971 C 0.39801 0.75945 0.26984 0.0
C2972 C 0.37906 0.76154 0.28325 0.0
C2973 C 0.37465 0.7476 0.30226 0.0
H2974 H 0.1453 0.78622 0.11804 0.0
H2975 H 0.08025 0.79707 0.1462 0.0
H2976 H 0.0658 0.75443 0.14671 0.0
H2977 H 0.11646 0.7325 0.08051 0.0
H2978 H 0.14267 0.71995 0.087 0.0
H2979 H 0.14664 0.75114 0.08708 0.0
H2980 H 0.16965 0.75601 0.13033 0.0
H2981 H 0.16542 0.72484 0.13053 0.0
H2982 H 0.15494 0.74116 0.15343 0.0
H2983 H 0.05941 0.71055 0.14569 0.0
H2984 H 0.0613 0.66887 0.14233 0.0
H2985 H 0.13109 0.6876 0.11597 0.0
C2986 C 0.12779 0.77967 0.12391 0.0
C2987 C 0.11384 0.79496 0.13197 0.0
C2988 C 0.09121 0.78565 0.13986 0.0
C2989 C 0.08286 0.76148 0.14025 0.0
C2990 C 0.0974 0.74694 0.13274 0.0
C2991 C 0.11932 0.75569 0.1246 0.0
C2992 C 0.13203 0.73651 0.11845 0.0
C2993 C 0.13458 0.73493 0.09167 0.0
C2994 C 0.15698 0.73984 0.13413 0.0
C2995 C 0.11398 0.7156 0.12465 0.0
C2996 C 0.09404 0.72189 0.13272 0.0
C2997 C 0.07492 0.70542 0.13937 0.0
C2998 C 0.07616 0.68185 0.13744 0.0
C2999 C 0.09646 0.67514 0.12916 0.0
C3000 C 0.11559 0.6923 0.12283 0.0
H3001 H 0.08035 0.25619 0.84243 0.0
H3002 H 0.08408 0.20339 0.89253 0.0
H3003 H 0.12092 0.19592 0.87737 0.0
H3004 H 0.10173 0.22663 0.79321 0.0
H3005 H 0.119 0.25357 0.78458 0.0
H3006 H 0.09179 0.2534 0.7981 0.0
H3007 H 0.1166 0.28508 0.83089 0.0
H3008 H 0.14387 0.28527 0.81755 0.0
H3009 H 0.14338 0.27985 0.84856 0.0
H3010 H 0.15935 0.19654 0.85913 0.0
H3011 H 0.19561 0.2044 0.83781 0.0
H3012 H 0.16614 0.25623 0.79961 0.0
C3013 C 0.08866 0.24279 0.84995 0.0
C3014 C 0.07931 0.23037 0.86862 0.0
C3015 C 0.09089 0.21313 0.87816 0.0
C3016 C 0.11182 0.20872 0.86967 0.0
C3017 C 0.12083 0.22159 0.85155 0.0
C3018 C 0.10952 0.23815 0.84168 0.0
C3019 C 0.1235 0.25035 0.82318 0.0
C3020 C 0.10808 0.2457 0.79829 0.0
C3021 C 0.13236 0.27669 0.83049 0.0
C3022 C 0.14459 0.23829 0.82443 0.0
C3023 C 0.14276 0.22173 0.84087 0.0
C3024 C 0.16084 0.20925 0.84598 0.0
C3025 C 0.18136 0.21387 0.83394 0.0
C3026 C 0.1834 0.23069 0.81698 0.0
C3027 C 0.16472 0.24291 0.81215 0.0
H3028 H 0.58796 0.70973 0.93346 0.0
H3029 H 0.58714 0.75025 0.99974 0.0
H3030 H 0.58623 0.71529 0.02157 0.0
H3031 H 0.54695 0.65709 0.94666 0.0
H3032 H 0.56253 0.63668 0.93403 0.0
H3033 H 0.56468 0.66501 0.92281 0.0
H3034 H 0.61174 0.67314 0.93134 0.0
H3035 H 0.60972 0.64476 0.94242 0.0
H3036 H 0.62632 0.67053 0.96097 0.0
H3037 H 0.58281 0.67581 0.03705 0.0
H3038 H 0.57969 0.63508 0.04561 0.0
H3039 H 0.58323 0.6162 0.97096 0.0
C3040 C 0.58824 0.7114 0.95266 0.0
C3041 C 0.58801 0.73357 0.96468 0.0
C3042 C 0.58756 0.73411 0.98979 0.0
C3043 C 0.58694 0.71408 1.00252 0.0
C3044 C 0.58667 0.69272 0.99032 0.0
C3045 C 0.58754 0.69108 0.96597 0.0
C3046 C 0.58653 0.66535 0.95769 0.0
C3047 C 0.56382 0.65545 0.93919 0.0
C3048 C 0.60997 0.66332 0.94749 0.0
C3049 C 0.58476 0.65301 0.98106 0.0
C3050 C 0.58484 0.66944 0.99951 0.0
C3051 C 0.5829 0.66291 0.02268 0.0
C3052 C 0.58102 0.63932 0.02737 0.0
C3053 C 0.58112 0.62155 1.00927 0.0
C3054 C 0.58307 0.62886 0.98554 0.0
H3055 H 0.14285 0.77567 0.71394 0.0
H3056 H 0.14943 0.84366 0.68643 0.0
H3057 H 0.19378 0.85319 0.70177 0.0
H3058 H 0.18666 0.79299 0.76767 0.0
H3059 H 0.19864 0.76706 0.76575 0.0
H3060 H 0.16747 0.76601 0.75339 0.0
H3061 H 0.17552 0.75002 0.71233 0.0
H3062 H 0.20671 0.75102 0.72455 0.0
H3063 H 0.20021 0.76604 0.69844 0.0
H3064 H 0.23824 0.85553 0.72155 0.0
H3065 H 0.2779 0.84976 0.74078 0.0
H3066 H 0.24332 0.77914 0.75332 0.0
C3067 C 0.1535 0.7927 0.71125 0.0
C3068 C 0.14219 0.80903 0.69908 0.0
C3069 C 0.15727 0.83085 0.6957 0.0
C3070 C 0.18261 0.83641 0.70443 0.0
C3071 C 0.19307 0.8199 0.7163 0.0
C3072 C 0.17893 0.79836 0.71948 0.0
C3073 C 0.1947 0.78332 0.73202 0.0
C3074 C 0.18637 0.77698 0.75614 0.0
C3075 C 0.19426 0.76129 0.71587 0.0
C3076 C 0.21996 0.79974 0.73564 0.0
C3077 C 0.21856 0.82085 0.72663 0.0
C3078 C 0.23938 0.83898 0.72845 0.0
C3079 C 0.26199 0.83551 0.73955 0.0
C3080 C 0.26419 0.81394 0.74865 0.0
C3081 C 0.24262 0.79582 0.74649 0.0
H3082 H 0.0589 0.374 0.45489 0.0
H3083 H 0.13549 0.37365 0.4722 0.0
H3084 H 0.14327 0.41419 0.49124 0.0
H3085 H 0.07009 0.4362 0.44038 0.0
H3086 H 0.0431 0.44106 0.45177 0.0
H3087 H 0.04384 0.4124 0.43934 0.0
H3088 H 1.03257 0.39528 0.47868 0.0
H3089 H 1.03202 0.42391 0.4913 0.0
H3090 H 0.05135 0.40714 0.50662 0.0
H3091 H 0.14158 0.45494 0.51225 0.0
H3092 H 0.1321 0.49171 0.52758 0.0
H3093 H 0.05724 0.46762 0.49338 0.0
C3094 C 0.07744 0.38253 0.46239 0.0
C3095 C 0.09661 0.37017 0.46182 0.0
C3096 C 0.12047 0.38238 0.47198 0.0
C3097 C 0.125 0.40553 0.48305 0.0
C3098 C 0.10565 0.417 0.48356 0.0
C3099 C 0.0824 0.40599 0.47286 0.0
C3100 C 0.06486 0.42236 0.47504 0.0
C3101 C 0.05488 0.42835 0.45016 0.0
C3102 C 0.04397 0.41152 0.48872 0.0
C3103 C 0.08152 0.44401 0.48939 0.0
C3104 C 0.105 0.44052 0.49426 0.0
C3105 C 0.12328 0.4577 0.50813 0.0
C3106 C 0.11765 0.47872 0.51695 0.0
C3107 C 0.09389 0.48317 0.51189 0.0
C3108 C 0.07568 0.46526 0.49768 0.0
H3109 H 0.49339 0.26565 0.21072 0.0
H3110 H 0.50937 0.33375 0.1833 0.0
H3111 H 0.47433 0.34352 0.20072 0.0
H3112 H 0.42644 0.25698 0.19942 0.0
H3113 H 0.42148 0.24215 0.22602 0.0
H3114 H 0.44777 0.24047 0.21158 0.0
H3115 H 0.47602 0.25603 0.25125 0.0
H3116 H 0.4498 0.25785 0.26574 0.0
H3117 H 0.47419 0.28331 0.26625 0.0
H3118 H 0.43806 0.3468 0.22328 0.0
H3119 H 0.40279 0.34258 0.24533 0.0
H3120 H 0.40699 0.27126 0.25686 0.0
C3121 C 0.48954 0.28265 0.20823 0.0
C3122 C 0.50473 0.29895 0.19539 0.0
C3123 C 0.49846 0.32083 0.19276 0.0
C3124 C 0.47845 0.32657 0.20277 0.0
C3125 C 0.46413 0.31024 0.21535 0.0
C3126 C 0.46922 0.28854 0.21783 0.0
C3127 C 0.45054 0.27399 0.23181 0.0
C3128 C 0.43568 0.25209 0.21628 0.0
C3129 C 0.46341 0.2674 0.25515 0.0
C3130 C 0.43425 0.2909 0.23705 0.0
C3131 C 0.44269 0.31178 0.22751 0.0
C3132 C 0.43138 0.33041 0.23057 0.0
C3133 C 0.41115 0.32781 0.24338 0.0
C3134 C 0.40147 0.30659 0.2532 0.0
C3135 C 0.41344 0.28778 0.24971 0.0
H3136 H 0.70905 0.57286 0.44301 0.0
H3137 H 0.66916 0.50962 0.40106 0.0
H3138 H 0.65214 0.49479 0.4368 0.0
H3139 H 0.71508 0.54508 0.50586 0.0
H3140 H 0.71182 0.57263 0.51912 0.0
H3141 H 0.72794 0.5719 0.49369 0.0
H3142 H 0.69874 0.59599 0.47316 0.0
H3143 H 0.68172 0.5946 0.4978 0.0
H3144 H 0.66628 0.58363 0.46821 0.0
H3145 H 0.62895 0.49377 0.47122 0.0
H3146 H 0.60577 0.50437 0.5028 0.0
H3147 H 0.66094 0.56841 0.52228 0.0
C3148 C 0.69805 0.55524 0.44195 0.0
C3149 C 0.69047 0.54221 0.41972 0.0
C3150 C 0.67548 0.51954 0.41825 0.0
C3151 C 0.6657 0.51106 0.43846 0.0
C3152 C 0.67167 0.52533 0.4599 0.0
C3153 C 0.68828 0.54667 0.46197 0.0
C3154 C 0.68819 0.56074 0.48512 0.0
C3155 C 0.71217 0.56266 0.50195 0.0
C3156 C 0.68341 0.58512 0.48077 0.0
C3157 C 0.66702 0.5453 0.49437 0.0
C3158 C 0.65818 0.5246 0.48012 0.0
C3159 C 0.63628 0.50947 0.48307 0.0
C3160 C 0.62305 0.51576 0.50083 0.0
C3161 C 0.63166 0.53716 0.51512 0.0
C3162 C 0.65419 0.55166 0.51213 0.0
H3163 H 0.34892 0.82396 0.10295 0.0
H3164 H 0.33644 0.89417 0.10831 0.0
H3165 H 0.33611 0.89259 0.15172 0.0
H3166 H 0.30879 0.80211 0.14672 0.0
H3167 H 0.32802 0.78336 0.15821 0.0
H3168 H 0.32696 0.79008 0.12747 0.0
H3169 H 0.37405 0.80506 0.13421 0.0
H3170 H 0.37518 0.79886 0.16511 0.0
H3171 H 0.38796 0.82786 0.15756 0.0
H3172 H 0.34074 0.88481 0.19489 0.0
H3173 H 0.34236 0.86828 0.23427 0.0
H3174 H 0.34812 0.80223 0.20038 0.0
C3175 C 0.34581 0.83885 0.11325 0.0
C3176 C 0.34278 0.85918 0.10236 0.0
C3177 C 0.33863 0.87833 0.11631 0.0
C3178 C 0.33863 0.87771 0.141 0.0
C3179 C 0.34235 0.85766 0.15132 0.0
C3180 C 0.34519 0.83834 0.13785 0.0
C3181 C 0.3479 0.81865 0.15329 0.0
C3182 C 0.32665 0.79729 0.14599 0.0
C3183 C 0.37275 0.81225 0.15249 0.0
C3184 C 0.34654 0.8301 0.17754 0.0
C3185 C 0.34375 0.85274 0.17609 0.0
C3186 C 0.34274 0.86705 0.19627 0.0
C3187 C 0.34389 0.85767 0.21849 0.0
C3188 C 0.34553 0.8342 0.22003 0.0
C3189 C 0.34707 0.82032 0.19944 0.0
H3190 H 0.0518 0.64593 0.90445 0.0
H3191 H 0.1287 0.66466 0.89857 0.0
H3192 H 0.13868 0.66901 0.94231 0.0
H3193 H 0.05833 0.67828 0.97165 0.0
H3194 H 0.035 0.65431 0.97815 0.0
H3195 H 1.03296 0.6653 0.94898 0.0
H3196 H 1.02935 0.6237 0.92953 0.0
H3197 H 1.03154 0.61277 0.95827 0.0
H3198 H 0.05292 0.60825 0.93829 0.0
H3199 H 0.14138 0.65426 0.98119 0.0
H3200 H 0.13582 0.62398 1.00974 0.0
H3201 H 0.05752 0.61433 0.99337 0.0
C3202 C 0.07051 0.65271 0.91266 0.0
C3203 C 0.08947 0.65518 0.89848 0.0
C3204 C 0.11396 0.66301 0.90934 0.0
C3205 C 0.11976 0.66556 0.93424 0.0
C3206 C 0.10085 0.6602 0.94805 0.0
C3207 C 0.07649 0.65468 0.93766 0.0
C3208 C 0.06007 0.64407 0.95529 0.0
C3209 C 0.04576 0.66154 0.96404 0.0
C3210 C 0.04253 0.62083 0.94471 0.0
C3211 C 0.07914 0.64058 0.97521 0.0
C3212 C 0.10251 0.65134 0.97152 0.0
C3213 C 0.12319 0.64657 0.98486 0.0
C3214 C 0.11997 0.62932 1.00106 0.0
C3215 C 0.09626 0.61699 1.00342 0.0
C3216 C 0.07579 0.62387 0.99174 0.0
H3217 H 0.34985 0.26265 0.59703 0.0
H3218 H 0.36721 0.19629 0.61215 0.0
H3219 H 0.36747 0.20614 0.65539 0.0
H3220 H 0.38833 0.29651 0.651 0.0
H3221 H 0.36703 0.31472 0.65499 0.0
H3222 H 0.36916 0.30284 0.62544 0.0
H3223 H 0.32281 0.28444 0.61941 0.0
H3224 H 0.32066 0.29612 0.649 0.0
H3225 H 0.31026 0.26523 0.64068 0.0
H3226 H 0.36115 0.22175 0.69744 0.0
H3227 H 0.35425 0.24327 0.73394 0.0
H3228 H 0.34478 0.30143 0.693 0.0
C3229 C 0.3542 0.25031 0.60943 0.0
C3230 C 0.35869 0.22855 0.60072 0.0
C3231 C 0.36404 0.21309 0.61793 0.0
C3232 C 0.36403 0.21853 0.6427 0.0
C3233 C 0.35906 0.23983 0.65052 0.0
C3234 C 0.35477 0.25572 0.63437 0.0
C3235 C 0.35009 0.27749 0.64747 0.0
C3236 C 0.36983 0.29918 0.64455 0.0
C3237 C 0.32443 0.28102 0.63861 0.0
C3238 C 0.352 0.27129 0.67345 0.0
C3239 C 0.35689 0.24932 0.67474 0.0
C3240 C 0.35781 0.23911 0.69651 0.0
C3241 C 0.35381 0.25151 0.71729 0.0
C3242 C 0.34943 0.27432 0.71677 0.0
C3243 C 0.34867 0.2843 0.69434 0.0
H3244 H 0.65159 0.5331 0.28306 0.0
H3245 H 0.60405 0.56354 0.32345 0.0
H3246 H 0.57201 0.55509 0.28847 0.0
H3247 H 0.64086 0.55841 0.23359 0.0
H3248 H 0.64148 0.53461 0.21234 0.0
H3249 H 0.65758 0.53659 0.24199 0.0
H3250 H 0.63368 0.49493 0.24769 0.0
H3251 H 0.61736 0.49287 0.21785 0.0
H3252 H 0.60074 0.48815 0.243 0.0
H3253 H 0.54986 0.55262 0.24777 0.0
H3254 H 0.53998 0.55677 0.20466 0.0
H3255 H 0.60117 0.5274 0.19037 0.0
C3256 C 0.63407 0.53712 0.28483 0.0
C3257 C 0.63031 0.54896 0.30593 0.0
C3258 C 0.60735 0.55445 0.30743 0.0
C3259 C 0.58893 0.54952 0.2877 0.0
C3260 C 0.59362 0.53883 0.26672 0.0
C3261 C 0.61556 0.53242 0.26524 0.0
C3262 C 0.61771 0.52481 0.23974 0.0
C3263 C 0.64074 0.5395 0.23145 0.0
C3264 C 0.61734 0.49863 0.23691 0.0
C3265 C 0.59453 0.52982 0.2269 0.0
C3266 C 0.58048 0.53718 0.24282 0.0
C3267 C 0.56022 0.54616 0.23511 0.0
C3268 C 0.55479 0.54856 0.21065 0.0
C3269 C 0.56965 0.5421 0.19429 0.0
C3270 C 0.58903 0.53168 0.20244 0.0
H3271 H 0.36774 0.84651 0.96087 0.0
H3272 H 0.29281 0.84704 0.96954 0.0
H3273 H 0.28055 0.83776 0.92581 0.0
H3274 H 0.36789 0.87622 0.90879 0.0
H3275 H 0.38742 0.86053 0.89508 0.0
H3276 H 0.38974 0.86419 0.92716 0.0
H3277 H 0.38221 0.81937 0.92921 0.0
H3278 H 0.3803 0.81561 0.89714 0.0
H3279 H 0.35557 0.80074 0.91173 0.0
H3280 H 0.27692 0.82858 0.88101 0.0
H3281 H 0.2825 0.8222 0.83852 0.0
H3282 H 0.36058 0.83234 0.85961 0.0
C3283 C 0.34863 0.84405 0.95364 0.0
C3284 C 0.33106 0.84697 0.96848 0.0
C3285 C 0.30641 0.84453 0.95836 0.0
C3286 C 0.29933 0.83931 0.93362 0.0
C3287 C 0.31727 0.83709 0.91938 0.0
C3288 C 0.34144 0.83951 0.92904 0.0
C3289 C 0.35755 0.83821 0.90982 0.0
C3290 C 0.37678 0.86115 0.91025 0.0
C3291 C 0.36961 0.81723 0.91211 0.0
C3292 C 0.3387 0.83469 0.88778 0.0
C3293 C 0.31551 0.83371 0.89363 0.0
C3294 C 0.29501 0.82955 0.87621 0.0
C3295 C 0.29832 0.82604 0.85221 0.0
C3296 C 0.32199 0.82732 0.84599 0.0
C3297 C 0.34239 0.83193 0.86395 0.0
H3298 H 0.08808 0.64286 0.75698 0.0
H3299 H 0.15311 0.6364 0.80281 0.0
H3300 H 0.17662 0.64191 0.769 0.0
H3301 H 0.09337 0.60802 0.71282 0.0
H3302 H 0.08269 0.62309 0.68819 0.0
H3303 H 0.07345 0.62764 0.71686 0.0
H3304 H 0.09055 0.67223 0.71696 0.0
H3305 H 0.09969 0.66748 0.68799 0.0
H3306 H 0.12182 0.68303 0.71242 0.0
H3307 H 0.18949 0.63599 0.73026 0.0
H3308 H 0.18986 0.61774 0.69002 0.0
H3309 H 0.11719 0.62797 0.66788 0.0
C3310 C 0.10754 0.6438 0.76003 0.0
C3311 C 0.11886 0.63932 0.78238 0.0
C3312 C 0.14415 0.63983 0.78575 0.0
C3313 C 0.1577 0.64321 0.76669 0.0
C3314 C 0.14575 0.64615 0.74437 0.0
C3315 C 0.12122 0.64677 0.74097 0.0
C3316 C 0.11147 0.64517 0.71459 0.0
C3317 C 0.08897 0.62476 0.70774 0.0
C3318 C 0.10555 0.66837 0.70759 0.0
C3319 C 0.13349 0.64087 0.70383 0.0
C3320 C 0.15343 0.6426 0.72124 0.0
C3321 C 0.17438 0.6354 0.71631 0.0
C3322 C 0.17445 0.62497 0.69346 0.0
C3323 C 0.15368 0.62181 0.67593 0.0
C3324 C 0.13359 0.63103 0.68079 0.0
H3325 H 0.31662 0.22527 0.44769 0.0
H3326 H 0.3941 0.23183 0.46912 0.0
H3327 H 0.40254 0.25073 0.43187 0.0
H3328 H 0.3179 0.21085 0.3837 0.0
H3329 H 0.29448 0.2261 0.37405 0.0
H3330 H 0.2949 0.21354 0.40239 0.0
H3331 H 0.29562 0.25378 0.42365 0.0
H3332 H 0.29539 0.26646 0.39539 0.0
H3333 H 0.3193 0.27861 0.41975 0.0
H3334 H 0.4022 0.27293 0.39228 0.0
H3335 H 0.3931 0.28959 0.35365 0.0
H3336 H 0.31571 0.26437 0.35547 0.0
C3337 C 0.33543 0.23048 0.44452 0.0
C3338 C 0.3547 0.22692 0.46182 0.0
C3339 C 0.37892 0.23403 0.45647 0.0
C3340 C 0.38387 0.24501 0.43525 0.0
C3341 C 0.36446 0.24848 0.41881 0.0
C3342 C 0.34063 0.24083 0.42304 0.0
C3343 C 0.32287 0.24563 0.40216 0.0
C3344 C 0.30657 0.22266 0.38985 0.0
C3345 C 0.30738 0.2621 0.41076 0.0
C3346 C 0.34026 0.25751 0.38561 0.0
C3347 C 0.36424 0.2594 0.39569 0.0
C3348 C 0.38342 0.27106 0.38426 0.0
C3349 C 0.37808 0.28063 0.3622 0.0
C3350 C 0.35369 0.27822 0.35095 0.0
C3351 C 0.33462 0.26633 0.36311 0.0
H3352 H 0.3836 0.6541 0.53532 0.0
H3353 H 0.34732 0.63689 0.46219 0.0
H3354 H 0.37284 0.60855 0.45603 0.0
H3355 H 0.44345 0.65098 0.52321 0.0
H3356 H 0.45122 0.63833 0.5506 0.0
H3357 H 0.4298 0.65698 0.54936 0.0
H3358 H 0.39764 0.62418 0.56367 0.0
H3359 H 0.419 0.60545 0.5649 0.0
H3360 H 0.38931 0.59582 0.54726 0.0
H3361 H 0.40301 0.58261 0.4576 0.0
H3362 H 0.43569 0.56126 0.46687 0.0
H3363 H 0.45122 0.59484 0.53919 0.0
C3364 C 0.38095 0.64434 0.51802 0.0
C3365 C 0.36343 0.6477 0.49924 0.0
C3366 C 0.36059 0.63459 0.47686 0.0
C3367 C 0.375 0.61844 0.47318 0.0
C3368 C 0.39211 0.61557 0.49206 0.0
C3369 C 0.39512 0.62813 0.51405 0.0
C3370 C 0.41497 0.62195 0.53131 0.0
C3371 C 0.43611 0.64334 0.53907 0.0
C3372 C 0.4046 0.61121 0.55307 0.0
C3373 C 0.42268 0.60402 0.51557 0.0
C3374 C 0.4093 0.60055 0.49301 0.0
C3375 C 0.4135 0.58507 0.47528 0.0
C3376 C 0.43199 0.57291 0.48075 0.0
C3377 C 0.44602 0.57632 0.50376 0.0
C3378 C 0.44104 0.59199 0.52136 0.0
H3379 H 0.90603 0.94308 0.52832 0.0
H3380 H 0.87056 0.9952 0.55596 0.0
H3381 H 0.90929 0.0252 0.5574 0.0
H3382 H 0.96445 0.96355 0.56299 0.0
H3383 H 0.98119 0.95703 0.53933 0.0
H3384 H 0.95073 0.94026 0.5401 0.0
H3385 H 0.93738 0.95027 0.49719 0.0
H3386 H 0.96785 0.967 0.49624 0.0
H3387 H 0.94213 0.98039 0.49065 0.0
H3388 H 0.95436 0.04923 0.55805 0.0
H3389 H 0.99812 0.06468 0.55508 0.0
H3390 H 1.00296 0.99678 0.52501 0.0
C3391 C 0.90619 0.96082 0.53462 0.0
C3392 C 0.88491 0.96656 0.54216 0.0
C3393 C 0.88631 0.99017 0.55001 0.0
C3394 C 0.90839 1.00734 0.55096 0.0
C3395 C 0.92904 1.00087 0.5437 0.0
C3396 C 0.92788 0.97811 0.53538 0.0
C3397 C 0.95232 0.97535 0.52837 0.0
C3398 C 0.96278 0.95802 0.54361 0.0
C3399 C 0.94976 0.96781 0.50152 0.0
C3400 C 0.96775 1.00004 0.53424 0.0
C3401 C 0.95411 1.01454 0.54323 0.0
C3402 C 0.96491 0.03792 0.55077 0.0
C3403 C 0.98995 0.04659 0.54905 0.0
C3404 C 1.00428 0.03217 0.53958 0.0
C3405 C 0.9927 1.00852 0.53202 0.0
H3406 H 0.87029 0.0651 0.21733 0.0
H3407 H 0.94731 0.09214 0.24351 0.0
H3408 H 0.93758 0.127 0.26275 0.0
H3409 H 0.8562 0.11964 0.20405 0.0
H3410 H 0.82645 0.11276 0.21361 0.0
H3411 H 0.83945 0.08972 0.20229 0.0
H3412 H 0.83415 0.0693 0.24133 0.0
H3413 H 0.82125 0.09236 0.25283 0.0
H3414 H 0.84741 0.08519 0.26976 0.0
H3415 H 0.91981 0.15935 0.27798 0.0
H3416 H 0.89499 0.18729 0.28819 0.0
H3417 H 0.82949 0.13893 0.25286 0.0
C3418 C 0.88513 0.07834 0.2271 0.0
C3419 C 0.90957 0.07592 0.22888 0.0
C3420 C 0.92844 0.09362 0.2419 0.0
C3421 C 0.92311 0.11346 0.25293 0.0
C3422 C 0.89882 0.11525 0.25088 0.0
C3423 C 0.88012 0.09819 0.23833 0.0
C3424 C 0.85561 0.10453 0.23863 0.0
C3425 C 0.84374 0.1068 0.21313 0.0
C3426 C 0.83861 0.08678 0.2514 0.0
C3427 C 0.86349 0.12797 0.25308 0.0
C3428 C 0.88849 0.13379 0.26 0.0
C3429 C 0.9002 0.15494 0.27279 0.0
C3430 C 0.88601 0.17069 0.27843 0.0
C3431 C 0.8604 0.16516 0.27134 0.0
C3432 C 0.849 0.1434 0.25877 0.0
H3433 H 0.73331 0.17271 0.99909 0.0
H3434 H 0.78617 0.14218 0.04093 0.0
H3435 H 0.75455 0.10592 0.04089 0.0
H3436 H 0.68515 0.15296 0.02811 0.0
H3437 H 0.66196 0.14699 1.00226 0.0
H3438 H 0.68957 0.16868 1.00197 0.0
H3439 H 0.69784 0.14719 0.96362 0.0
H3440 H 0.67008 0.12539 0.96373 0.0
H3441 H 0.69872 0.11676 0.96339 0.0
H3442 H 0.71576 0.077 0.04334 0.0
H3443 H 0.67321 0.05617 0.04537 0.0
H3444 H 0.64613 0.10404 0.9995 0.0
C3445 C 0.73838 0.15816 1.00772 0.0
C3446 C 0.76209 0.16019 0.02009 0.0
C3447 C 0.76811 0.14088 0.03124 0.0
C3448 C 0.75029 0.12024 0.03127 0.0
C3449 C 0.72681 0.11908 0.01955 0.0
C3450 C 0.72097 0.13738 1.00757 0.0
C3451 C 0.69401 0.13258 0.99806 0.0
C3452 C 0.68198 0.15141 1.00822 0.0
C3453 C 0.68993 0.13034 0.97056 0.0
C3454 C 0.68529 0.10932 1.00779 0.0
C3455 C 0.70453 0.1017 0.01994 0.0
C3456 C 0.70067 0.0823 0.03317 0.0
C3457 C 0.67654 0.07063 0.03429 0.0
C3458 C 0.65679 0.07827 0.022 0.0
C3459 C 0.66116 0.09747 1.0082 0.0
H3460 H 0.19925 0.47211 0.29852 0.0
H3461 H 0.1974 0.47089 0.22148 0.0
H3462 H 0.23838 0.46209 0.22541 0.0
H3463 H 0.26532 0.49698 0.31496 0.0
H3464 H 0.26781 0.4788 0.33934 0.0
H3465 H 0.23964 0.48773 0.3308 0.0
H3466 H 0.21607 0.44443 0.32522 0.0
H3467 H 0.2441 0.43541 0.3338 0.0
H3468 H 0.2257 0.42408 0.30555 0.0
H3469 H 0.27787 0.45046 0.23731 0.0
H3470 H 0.31166 0.43425 0.25591 0.0
H3471 H 0.28782 0.44284 0.32527 0.0
C3472 C 0.20765 0.47041 0.28251 0.0
C3473 C 0.19523 0.47233 0.25971 0.0
C3474 C 0.20661 0.46952 0.23914 0.0
C3475 C 0.22994 0.46466 0.2412 0.0
C3476 C 0.24159 0.46266 0.26395 0.0
C3477 C 0.2308 0.46536 0.28424 0.0
C3478 C 0.24625 0.46033 0.30633 0.0
C3479 C 0.25529 0.48227 0.32389 0.0
C3480 C 0.23219 0.43984 0.31842 0.0
C3481 C 0.2671 0.45378 0.2952 0.0
C3482 C 0.26428 0.45564 0.2708 0.0
C3483 C 0.28049 0.44929 0.25646 0.0
C3484 C 0.29975 0.44025 0.26723 0.0
C3485 C 0.30252 0.43747 0.29209 0.0
C3486 C 0.28623 0.44484 0.30625 0.0
H3487 H 0.2342 0.47319 0.07385 0.0
H3488 H 0.24298 0.46033 0.99956 0.0
H3489 H 0.2086 0.47909 0.98736 0.0
H3490 H 0.16802 0.46268 0.06533 0.0
H3491 H 0.1671 0.48552 0.0876 0.0
H3492 H 0.19221 0.47112 0.09021 0.0
H3493 H 0.22247 0.51116 0.0922 0.0
H3494 H 0.1973 0.52551 0.08938 0.0
H3495 H 0.21918 0.53001 0.06855 0.0
H3496 H 0.17167 0.49956 0.98319 0.0
H3497 H 0.13782 0.51921 0.98734 0.0
H3498 H 0.15249 0.51942 0.06449 0.0
C3499 C 0.22903 0.47427 0.05494 0.0
C3500 C 0.24184 0.46497 0.03773 0.0
C3501 C 0.23395 0.46709 1.01326 0.0
C3502 C 0.21423 0.4778 1.00615 0.0
C3503 C 0.20211 0.48665 0.02355 0.0
C3504 C 0.20934 0.48501 0.04752 0.0
C3505 C 0.19338 0.49599 0.06275 0.0
C3506 C 0.17934 0.47773 0.07733 0.0
C3507 C 0.20902 0.51691 0.0792 0.0
C3508 C 0.17588 0.50397 0.04374 0.0
C3509 C 0.18127 0.49842 0.02121 0.0
C3510 C 0.16756 0.50394 1.00084 0.0
C3511 C 0.14815 0.51524 1.00341 0.0
C3512 C 0.14202 0.52132 0.02623 0.0
C3513 C 0.1564 0.5154 0.04667 0.0
H3514 H 0.87775 0.93465 0.18394 0.0
H3515 H 0.88692 0.98625 0.244 0.0
H3516 H 0.86207 0.9573 0.26579 0.0
H3517 H 0.81304 0.89885 0.19555 0.0
H3518 H 0.82143 0.87233 0.18592 0.0
H3519 H 0.83165 0.89878 0.1719 0.0
H3520 H 0.87616 0.89415 0.18156 0.0
H3521 H 0.86643 0.86837 0.19635 0.0
H3522 H 0.88872 0.89272 0.21224 0.0
H3523 H 0.85151 0.92128 0.28569 0.0
H3524 H 0.84674 0.88157 0.29927 0.0
H3525 H 0.84122 0.85293 0.22603 0.0
C3526 C 0.8732 0.94012 0.20108 0.0
C3527 C 0.8843 0.96244 0.21243 0.0
C3528 C 0.87841 0.96921 0.23496 0.0
C3529 C 0.86433 0.95283 0.24751 0.0
C3530 C 0.85569 0.93014 0.23685 0.0
C3531 C 0.85893 0.924 0.21365 0.0
C3532 C 0.85115 0.89786 0.20763 0.0
C3533 C 0.82793 0.89159 0.18916 0.0
C3534 C 0.87186 0.88772 0.19897 0.0
C3535 C 0.84586 0.89016 0.23181 0.0
C3536 C 0.84815 0.90902 0.24835 0.0
C3537 C 0.84851 0.90634 0.27274 0.0
C3538 C 0.84622 0.88386 0.28035 0.0
C3539 C 0.84345 0.86447 0.26355 0.0
C3540 C 0.84275 0.86759 0.23903 0.0
H3541 H 0.67148 0.05469 0.76498 0.0
H3542 H 0.60547 0.06573 0.79099 0.0
H3543 H 0.62453 0.10767 0.80003 0.0
H3544 H 0.71514 0.09728 0.80776 0.0
H3545 H 0.73494 0.1065 0.78583 0.0
H3546 H 0.71687 0.07704 0.78325 0.0
H3547 H 0.69788 0.08242 0.74038 0.0
H3548 H 0.71588 0.11184 0.74281 0.0
H3549 H 0.68312 0.10635 0.73559 0.0
H3550 H 0.64993 0.14866 0.80435 0.0
H3551 H 0.67925 0.18594 0.80239 0.0
H3552 H 0.72821 0.14834 0.77244 0.0
C3553 C 0.66112 0.06585 0.77288 0.0
C3554 C 0.63698 0.05688 0.77737 0.0
C3555 C 0.62397 0.07217 0.78741 0.0
C3556 C 0.63468 0.09601 0.79269 0.0
C3557 C 0.6584 0.1043 0.78781 0.0
C3558 C 0.67146 0.0897 0.77809 0.0
C3559 C 0.69609 0.10324 0.77323 0.0
C3560 C 0.717 0.09555 0.78843 0.0
C3561 C 0.69836 0.10082 0.74641 0.0
C3562 C 0.6947 0.12781 0.78139 0.0
C3563 C 0.67292 0.128 0.78996 0.0
C3564 C 0.66709 0.14871 0.79776 0.0
C3565 C 0.6838 0.16981 0.79644 0.0
C3566 C 0.70603 0.17011 0.78722 0.0
C3567 C 0.7116 0.14872 0.77993 0.0
loop_
_geom_bond_atom_site_label_1
_geom_bond_atom_site_label_2
_geom_bond_distance
_geom_bond_site_symmetry_2
_ccdc_geom_bond_type
Zn0 O3 2.031 . S
Zn0 O5 2.049 . S
Zn0 O10 2.067 . S
Zn1 O2 1.962 . S
Zn1 O4 1.986 . S
Zn1 O6 1.996 . S
Zn1 O9 1.943 . S
O2 Zn1 1.962 . S
O2 C7 1.254 . S
O3 Zn0 2.031 . S
O3 C7 1.269 . S
O4 Zn1 1.986 . S
O4 C11 1.262 . S
O5 Zn0 2.049 . S
O5 C13 1.260 . S
O6 Zn1 1.996 . S
O6 C13 1.257 . S
C7 O2 1.254 . S
C7 O3 1.269 . S
C8 O9 1.249 . S
C8 O10 1.270 . S
O9 Zn1 1.943 . S
O9 C8 1.249 . S
O10 Zn0 2.067 . S
O10 C8 1.270 . S
C11 O4 1.262 . S
C11 O12 1.232 . S
O12 C11 1.232 . S
C13 O5 1.260 . S
C13 O6 1.257 . S
Zn14 O17 2.031 . S
Zn14 O19 2.049 . S
Zn14 O24 2.067 . S
Zn15 O16 1.962 . S
Zn15 O18 1.986 . S
Zn15 O20 1.996 . S
Zn15 O23 1.943 . S
O16 Zn15 1.962 . S
O16 C21 1.254 . S
O17 Zn14 2.031 . S
O17 C21 1.269 . S
O18 Zn15 1.986 . S
O18 C25 1.262 . S
O19 Zn14 2.049 . S
O19 C27 1.260 . S
O20 Zn15 1.996 . S
O20 C27 1.257 . S
C21 O16 1.254 . S
C21 O17 1.269 . S
C22 O23 1.249 . S
C22 O24 1.270 . S
O23 Zn15 1.943 . S
O23 C22 1.249 . S
O24 Zn14 2.067 . S
O24 C22 1.270 . S
C25 O18 1.262 . S
C25 O26 1.232 . S
O26 C25 1.232 . S
C27 O19 1.260 . S
C27 O20 1.257 . S
Zn28 O31 2.031 . S
Zn28 O33 2.049 . S
Zn28 O38 2.067 . S
Zn29 O30 1.962 . S
Zn29 O32 1.986 . S
Zn29 O34 1.996 . S
Zn29 O37 1.943 . S
O30 Zn29 1.962 . S
O30 C35 1.254 . S
O31 Zn28 2.031 . S
O31 C35 1.269 . S
O32 Zn29 1.986 . S
O32 C39 1.262 . S
O33 Zn28 2.049 . S
O33 C41 1.260 . S
O34 Zn29 1.996 . S
O34 C41 1.257 . S
C35 O30 1.254 . S
C35 O31 1.269 . S
C36 O37 1.249 . S
C36 O38 1.270 . S
O37 Zn29 1.943 . S
O37 C36 1.249 . S
O38 Zn28 2.067 . S
O38 C36 1.270 . S
C39 O32 1.262 . S
C39 O40 1.232 . S
O40 C39 1.232 . S
C41 O33 1.260 . S
C41 O34 1.257 . S
Zn42 O45 2.031 . S
Zn42 O47 2.049 . S
Zn42 O52 2.067 . S
Zn43 O44 1.962 . S
Zn43 O46 1.986 . S
Zn43 O48 1.996 . S
Zn43 O51 1.943 . S
O44 Zn43 1.962 . S
O44 C49 1.254 . S
O45 Zn42 2.031 . S
O45 C49 1.269 . S
O46 Zn43 1.986 . S
O46 C53 1.262 . S
O47 Zn42 2.049 . S
O47 C55 1.260 . S
O48 Zn43 1.996 . S
O48 C55 1.257 . S
C49 O44 1.254 . S
C49 O45 1.269 . S
C50 O51 1.249 . S
C50 O52 1.270 . S
O51 Zn43 1.943 . S
O51 C50 1.249 . S
O52 Zn42 2.067 . S
O52 C50 1.270 . S
C53 O46 1.262 . S
C53 O54 1.232 . S
O54 C53 1.232 . S
C55 O47 1.260 . S
C55 O48 1.257 . S
Zn56 O59 2.031 . S
Zn56 O61 2.049 . S
Zn56 O66 2.067 . S
Zn57 O58 1.962 . S
Zn57 O60 1.986 . S
Zn57 O62 1.996 . S
Zn57 O65 1.943 . S
O58 Zn57 1.962 . S
O58 C63 1.254 . S
O59 Zn56 2.031 . S
O59 C63 1.269 . S
O60 Zn57 1.986 . S
O60 C67 1.262 . S
O61 Zn56 2.049 . S
O61 C69 1.260 . S
O62 Zn57 1.996 . S
O62 C69 1.257 . S
C63 O58 1.254 . S
C63 O59 1.269 . S
C64 O65 1.249 . S
C64 O66 1.270 . S
O65 Zn57 1.943 . S
O65 C64 1.249 . S
O66 Zn56 2.067 . S
O66 C64 1.270 . S
C67 O60 1.262 . S
C67 O68 1.232 . S
O68 C67 1.232 . S
C69 O61 1.260 . S
C69 O62 1.257 . S
Zn70 O73 2.031 . S
Zn70 O75 2.049 . S
Zn70 O80 2.067 . S
Zn71 O72 1.962 . S
Zn71 O74 1.986 . S
Zn71 O76 1.996 . S
Zn71 O79 1.943 . S
O72 Zn71 1.962 . S
O72 C77 1.254 . S
O73 Zn70 2.031 . S
O73 C77 1.269 . S
O74 Zn71 1.986 . S
O74 C81 1.262 . S
O75 Zn70 2.049 . S
O75 C83 1.260 . S
O76 Zn71 1.996 . S
O76 C83 1.257 . S
C77 O72 1.254 . S
C77 O73 1.269 . S
C78 O79 1.249 . S
C78 O80 1.270 . S
O79 Zn71 1.943 . S
O79 C78 1.249 . S
O80 Zn70 2.067 . S
O80 C78 1.270 . S
C81 O74 1.262 . S
C81 O82 1.232 . S
O82 C81 1.232 . S
C83 O75 1.260 . S
C83 O76 1.257 . S
Zn84 O87 2.031 . S
Zn84 O89 2.049 . S
Zn84 O94 2.067 . S
Zn85 O86 1.962 . S
Zn85 O88 1.986 . S
Zn85 O90 1.996 . S
Zn85 O93 1.943 . S
O86 Zn85 1.962 . S
O86 C91 1.254 . S
O87 Zn84 2.031 . S
O87 C91 1.269 . S
O88 Zn85 1.986 . S
O88 C95 1.262 . S
O89 Zn84 2.049 . S
O89 C97 1.260 . S
O90 Zn85 1.996 . S
O90 C97 1.257 . S
C91 O86 1.254 . S
C91 O87 1.269 . S
C92 O93 1.249 . S
C92 O94 1.270 . S
O93 Zn85 1.943 . S
O93 C92 1.249 . S
O94 Zn84 2.067 . S
O94 C92 1.270 . S
C95 O88 1.262 . S
C95 O96 1.232 . S
O96 C95 1.232 . S
C97 O89 1.260 . S
C97 O90 1.257 . S
Zn98 O101 2.031 . S
Zn98 O103 2.049 . S
Zn98 O108 2.067 . S
Zn99 O100 1.962 . S
Zn99 O102 1.986 . S
Zn99 O104 1.996 . S
Zn99 O107 1.943 1_455 S
O100 Zn99 1.962 . S
O100 C105 1.254 . S
O101 Zn98 2.031 . S
O101 C105 1.269 1_655 S
O102 Zn99 1.986 . S
O102 C109 1.262 . S
O103 Zn98 2.049 . S
O103 C111 1.260 . S
O104 Zn99 1.996 . S
O104 C111 1.257 1_455 S
C105 O100 1.254 . S
C105 O101 1.269 1_455 S
C106 O107 1.249 . S
C106 O108 1.270 . S
O107 Zn99 1.943 1_655 S
O107 C106 1.249 . S
O108 Zn98 2.067 . S
O108 C106 1.270 . S
C109 O102 1.262 . S
C109 O110 1.232 . S
O110 C109 1.232 . S
C111 O103 1.260 . S
C111 O104 1.257 1_655 S
Zn112 O115 2.031 . S
Zn112 O117 2.049 . S
Zn112 O122 2.067 . S
Zn113 O114 1.962 . S
Zn113 O116 1.986 . S
Zn113 O118 1.996 . S
Zn113 O121 1.943 . S
O114 Zn113 1.962 . S
O114 C119 1.254 . S
O115 Zn112 2.031 . S
O115 C119 1.269 . S
O116 Zn113 1.986 . S
O116 C123 1.262 . S
O117 Zn112 2.049 . S
O117 C125 1.260 . S
O118 Zn113 1.996 . S
O118 C125 1.257 . S
C119 O114 1.254 . S
C119 O115 1.269 . S
C120 O121 1.249 . S
C120 O122 1.270 . S
O121 Zn113 1.943 . S
O121 C120 1.249 . S
O122 Zn112 2.067 . S
O122 C120 1.270 . S
C123 O116 1.262 . S
C123 O124 1.232 . S
O124 C123 1.232 . S
C125 O117 1.260 . S
C125 O118 1.257 . S
Zn126 O129 2.031 . S
Zn126 O131 2.049 . S
Zn126 O136 2.067 . S
Zn127 O128 1.962 . S
Zn127 O130 1.986 . S
Zn127 O132 1.996 . S
Zn127 O135 1.943 . S
O128 Zn127 1.962 . S
O128 C133 1.254 . S
O129 Zn126 2.031 . S
O129 C133 1.269 . S
O130 Zn127 1.986 . S
O130 C137 1.262 . S
O131 Zn126 2.049 . S
O131 C139 1.260 . S
O132 Zn127 1.996 . S
O132 C139 1.257 . S
C133 O128 1.254 . S
C133 O129 1.269 . S
C134 O135 1.249 . S
C134 O136 1.270 . S
O135 Zn127 1.943 . S
O135 C134 1.249 . S
O136 Zn126 2.067 . S
O136 C134 1.270 . S
C137 O130 1.262 . S
C137 O138 1.232 . S
O138 C137 1.232 . S
C139 O131 1.260 . S
C139 O132 1.257 . S
Zn140 O143 2.031 . S
Zn140 O145 2.049 . S
Zn140 O150 2.067 . S
Zn141 O142 1.962 . S
Zn141 O144 1.986 . S
Zn141 O146 1.996 . S
Zn141 O149 1.943 . S
O142 Zn141 1.962 . S
O142 C147 1.254 . S
O143 Zn140 2.031 . S
O143 C147 1.269 . S
O144 Zn141 1.986 . S
O144 C151 1.262 . S
O145 Zn140 2.049 . S
O145 C153 1.260 . S
O146 Zn141 1.996 . S
O146 C153 1.257 . S
C147 O142 1.254 . S
C147 O143 1.269 . S
C148 O149 1.249 . S
C148 O150 1.270 . S
O149 Zn141 1.943 . S
O149 C148 1.249 . S
O150 Zn140 2.067 . S
O150 C148 1.270 . S
C151 O144 1.262 . S
C151 O152 1.232 . S
O152 C151 1.232 . S
C153 O145 1.260 . S
C153 O146 1.257 . S
Zn154 O157 2.031 . S
Zn154 O159 2.049 . S
Zn154 O164 2.067 . S
Zn155 O156 1.962 . S
Zn155 O158 1.986 . S
Zn155 O160 1.996 . S
Zn155 O163 1.943 . S
O156 Zn155 1.962 . S
O156 C161 1.254 . S
O157 Zn154 2.031 . S
O157 C161 1.269 . S
O158 Zn155 1.986 . S
O158 C165 1.262 . S
O159 Zn154 2.049 . S
O159 C167 1.260 . S
O160 Zn155 1.996 . S
O160 C167 1.257 . S
C161 O156 1.254 . S
C161 O157 1.269 . S
C162 O163 1.249 . S
C162 O164 1.270 . S
O163 Zn155 1.943 . S
O163 C162 1.249 . S
O164 Zn154 2.067 . S
O164 C162 1.270 . S
C165 O158 1.262 . S
C165 O166 1.232 . S
O166 C165 1.232 . S
C167 O159 1.260 . S
C167 O160 1.257 . S
Zn168 O171 2.031 1_554 S
Zn168 O173 2.049 . S
Zn168 O178 2.067 . S
Zn169 O170 1.962 1_554 S
Zn169 O172 1.986 . S
Zn169 O174 1.996 . S
Zn169 O177 1.943 . S
O170 Zn169 1.962 1_556 S
O170 C175 1.254 . S
O171 Zn168 2.031 1_556 S
O171 C175 1.269 . S
O172 Zn169 1.986 . S
O172 C179 1.262 . S
O173 Zn168 2.049 . S
O173 C181 1.260 . S
O174 Zn169 1.996 . S
O174 C181 1.257 . S
C175 O170 1.254 . S
C175 O171 1.269 . S
C176 O177 1.249 . S
C176 O178 1.270 . S
O177 Zn169 1.943 . S
O177 C176 1.249 . S
O178 Zn168 2.067 . S
O178 C176 1.270 . S
C179 O172 1.262 . S
C179 O180 1.232 . S
O180 C179 1.232 . S
C181 O173 1.260 . S
C181 O174 1.257 . S
Zn182 O185 2.031 1_554 S
Zn182 O187 2.049 . S
Zn182 O192 2.067 . S
Zn183 O184 1.968 . S
Zn183 O186 1.983 1_556 S
Zn183 O188 1.991 1_556 S
Zn183 O191 1.942 . S
O184 Zn183 1.968 . S
O184 C189 1.254 . S
O185 Zn182 2.031 1_556 S
O185 C189 1.269 . S
O186 Zn183 1.983 1_554 S
O186 C193 1.281 . S
O187 Zn182 2.049 . S
O187 C195 1.260 . S
O188 Zn183 1.991 1_554 S
O188 C195 1.257 . S
C189 O184 1.254 . S
C189 O185 1.269 . S
C190 O191 1.249 . S
C190 O192 1.270 1_556 S
O191 Zn183 1.942 . S
O191 C190 1.249 . S
O192 Zn182 2.067 . S
O192 C190 1.270 1_554 S
C193 O186 1.281 . S
C193 O194 1.211 1_554 S
O194 C193 1.211 1_556 S
C195 O187 1.260 . S
C195 O188 1.257 . S
Zn196 O199 2.031 . S
Zn196 O201 2.049 . S
Zn196 O206 2.067 . S
Zn197 O198 1.962 . S
Zn197 O200 1.986 . S
Zn197 O202 1.996 . S
Zn197 O205 1.943 . S
O198 Zn197 1.962 . S
O198 C203 1.254 . S
O199 Zn196 2.031 . S
O199 C203 1.269 . S
O200 Zn197 1.986 . S
O200 C207 1.262 . S
O201 Zn196 2.049 . S
O201 C209 1.260 . S
O202 Zn197 1.996 . S
O202 C209 1.257 . S
C203 O198 1.254 . S
C203 O199 1.269 . S
C204 O205 1.249 . S
C204 O206 1.270 . S
O205 Zn197 1.943 . S
O205 C204 1.249 . S
O206 Zn196 2.067 . S
O206 C204 1.270 . S
C207 O200 1.262 . S
C207 O208 1.232 . S
O208 C207 1.232 . S
C209 O201 1.260 . S
C209 O202 1.257 . S
Zn210 O213 2.031 . S
Zn210 O215 2.049 . S
Zn210 O220 2.067 . S
Zn211 O212 1.962 . S
Zn211 O214 1.986 . S
Zn211 O216 1.996 . S
Zn211 O219 1.943 . S
O212 Zn211 1.962 . S
O212 C217 1.254 . S
O213 Zn210 2.031 . S
O213 C217 1.269 . S
O214 Zn211 1.986 . S
O214 C221 1.262 . S
O215 Zn210 2.049 . S
O215 C223 1.260 . S
O216 Zn211 1.996 . S
O216 C223 1.257 . S
C217 O212 1.254 . S
C217 O213 1.269 . S
C218 O219 1.249 . S
C218 O220 1.270 . S
O219 Zn211 1.943 . S
O219 C218 1.249 . S
O220 Zn210 2.067 . S
O220 C218 1.270 . S
C221 O214 1.262 . S
C221 O222 1.232 . S
O222 C221 1.232 . S
C223 O215 1.260 . S
C223 O216 1.257 . S
Zn224 O227 2.031 . S
Zn224 O229 2.049 . S
Zn224 O234 2.067 . S
Zn225 O226 1.962 . S
Zn225 O228 1.986 . S
Zn225 O230 1.996 . S
Zn225 O233 1.943 1_545 S
O226 Zn225 1.962 . S
O226 C231 1.254 . S
O227 Zn224 2.031 . S
O227 C231 1.269 1_565 S
O228 Zn225 1.986 . S
O228 C235 1.262 . S
O229 Zn224 2.049 . S
O229 C237 1.260 . S
O230 Zn225 1.996 . S
O230 C237 1.257 1_545 S
C231 O226 1.254 . S
C231 O227 1.269 1_545 S
C232 O233 1.249 . S
C232 O234 1.270 . S
O233 Zn225 1.943 1_565 S
O233 C232 1.249 . S
O234 Zn224 2.067 . S
O234 C232 1.270 . S
C235 O228 1.262 . S
C235 O236 1.232 . S
O236 C235 1.232 . S
C237 O229 1.260 . S
C237 O230 1.257 1_565 S
Zn238 O241 2.031 . S
Zn238 O243 2.049 . S
Zn238 O248 2.067 . S
Zn239 O240 1.962 . S
Zn239 O242 1.986 . S
Zn239 O244 1.996 . S
Zn239 O247 1.943 . S
O240 Zn239 1.962 . S
O240 C245 1.254 . S
O241 Zn238 2.031 . S
O241 C245 1.269 . S
O242 Zn239 1.986 . S
O242 C249 1.262 . S
O243 Zn238 2.049 . S
O243 C251 1.260 . S
O244 Zn239 1.996 . S
O244 C251 1.257 . S
C245 O240 1.254 . S
C245 O241 1.269 . S
C246 O247 1.249 . S
C246 O248 1.270 . S
O247 Zn239 1.943 . S
O247 C246 1.249 . S
O248 Zn238 2.067 . S
O248 C246 1.270 . S
C249 O242 1.262 . S
C249 O250 1.232 . S
O250 C249 1.232 . S
C251 O243 1.260 . S
C251 O244 1.257 . S
Zn252 O255 2.031 . S
Zn252 O257 2.049 . S
Zn252 O262 2.067 . S
Zn253 O254 1.962 . S
Zn253 O256 1.986 . S
Zn253 O258 1.996 . S
Zn253 O261 1.943 . S
O254 Zn253 1.962 . S
O254 C259 1.254 . S
O255 Zn252 2.031 . S
O255 C259 1.269 . S
O256 Zn253 1.986 . S
O256 C263 1.262 . S
O257 Zn252 2.049 . S
O257 C265 1.260 . S
O258 Zn253 1.996 . S
O258 C265 1.257 . S
C259 O254 1.254 . S
C259 O255 1.269 . S
C260 O261 1.249 . S
C260 O262 1.270 . S
O261 Zn253 1.943 . S
O261 C260 1.249 . S
O262 Zn252 2.067 . S
O262 C260 1.270 . S
C263 O256 1.262 . S
C263 O264 1.232 . S
O264 C263 1.232 . S
C265 O257 1.260 . S
C265 O258 1.257 . S
Zn266 O269 2.031 . S
Zn266 O271 2.049 . S
Zn266 O276 2.067 . S
Zn267 O268 1.962 . S
Zn267 O270 1.986 . S
Zn267 O272 1.996 . S
Zn267 O275 1.943 1_565 S
O268 Zn267 1.962 . S
O268 C273 1.254 1_565 S
O269 Zn266 2.031 . S
O269 C273 1.269 . S
O270 Zn267 1.986 . S
O270 C277 1.262 . S
O271 Zn266 2.049 . S
O271 C279 1.260 . S
O272 Zn267 1.996 . S
O272 C279 1.257 1_565 S
C273 O268 1.254 1_545 S
C273 O269 1.269 . S
C274 O275 1.249 . S
C274 O276 1.270 . S
O275 Zn267 1.943 1_545 S
O275 C274 1.249 . S
O276 Zn266 2.067 . S
O276 C274 1.270 . S
C277 O270 1.262 . S
C277 O278 1.232 . S
O278 C277 1.232 . S
C279 O271 1.260 . S
C279 O272 1.257 1_545 S
Zn280 O283 2.031 1_554 S
Zn280 O285 2.049 . S
Zn280 O290 2.067 . S
Zn281 O282 1.962 1_554 S
Zn281 O284 1.986 . S
Zn281 O286 1.996 . S
Zn281 O289 1.943 . S
O282 Zn281 1.962 1_556 S
O282 C287 1.254 . S
O283 Zn280 2.031 1_556 S
O283 C287 1.269 . S
O284 Zn281 1.986 . S
O284 C291 1.262 . S
O285 Zn280 2.049 . S
O285 C293 1.260 . S
O286 Zn281 1.996 . S
O286 C293 1.257 . S
C287 O282 1.254 . S
C287 O283 1.269 . S
C288 O289 1.249 . S
C288 O290 1.270 . S
O289 Zn281 1.943 . S
O289 C288 1.249 . S
O290 Zn280 2.067 . S
O290 C288 1.270 . S
C291 O284 1.262 . S
C291 O292 1.232 1_554 S
O292 C291 1.232 1_556 S
C293 O285 1.260 . S
C293 O286 1.257 . S
Zn294 O297 2.031 . S
Zn294 O299 2.049 . S
Zn294 O304 2.067 1_455 S
Zn295 O296 1.977 . S
Zn295 O298 1.971 1_455 S
Zn295 O300 2.021 . S
Zn295 O303 1.929 1_455 S
O296 Zn295 1.977 . S
O296 C301 1.254 . S
O297 Zn294 2.031 . S
O297 C301 1.269 . S
O298 Zn295 1.971 1_655 S
O298 C305 1.262 . S
O299 Zn294 2.049 . S
O299 C307 1.260 . S
O300 Zn295 2.021 . S
O300 C307 1.257 . S
C301 O296 1.254 . S
C301 O297 1.269 . S
C302 O303 1.249 . S
C302 O304 1.270 . S
O303 Zn295 1.929 1_655 S
O303 C302 1.249 . S
O304 Zn294 2.067 1_655 S
O304 C302 1.270 . S
C305 O298 1.262 . S
C305 O306 1.232 . S
O306 C305 1.232 . S
C307 O299 1.260 . S
C307 O300 1.257 . S
Zn308 O311 2.031 . S
Zn308 O313 2.049 . S
Zn308 O318 2.067 . S
Zn309 O310 1.962 . S
Zn309 O312 1.986 . S
Zn309 O314 1.996 . S
Zn309 O317 1.943 . S
O310 Zn309 1.962 . S
O310 C315 1.254 . S
O311 Zn308 2.031 . S
O311 C315 1.269 . S
O312 Zn309 1.986 . S
O312 C319 1.262 . S
O313 Zn308 2.049 . S
O313 C321 1.260 . S
O314 Zn309 1.996 . S
O314 C321 1.257 . S
C315 O310 1.254 . S
C315 O311 1.269 . S
C316 O317 1.249 . S
C316 O318 1.270 . S
O317 Zn309 1.943 . S
O317 C316 1.249 . S
O318 Zn308 2.067 . S
O318 C316 1.270 . S
C319 O312 1.262 . S
C319 O320 1.232 . S
O320 C319 1.232 . S
C321 O313 1.260 . S
C321 O314 1.257 . S
Zn322 O325 2.031 . S
Zn322 O327 2.049 . S
Zn322 O332 2.067 . S
Zn323 O324 1.962 . S
Zn323 O326 1.986 . S
Zn323 O328 1.996 . S
Zn323 O331 1.943 . S
O324 Zn323 1.962 . S
O324 C329 1.254 . S
O325 Zn322 2.031 . S
O325 C329 1.269 . S
O326 Zn323 1.986 . S
O326 C333 1.262 . S
O327 Zn322 2.049 . S
O327 C335 1.260 . S
O328 Zn323 1.996 . S
O328 C335 1.257 . S
C329 O324 1.254 . S
C329 O325 1.269 . S
C330 O331 1.249 . S
C330 O332 1.270 . S
O331 Zn323 1.943 . S
O331 C330 1.249 . S
O332 Zn322 2.067 . S
O332 C330 1.270 . S
C333 O326 1.262 . S
C333 O334 1.232 . S
O334 C333 1.232 . S
C335 O327 1.260 . S
C335 O328 1.257 . S
Tb336 C346 2.825 1_454 S
Tb336 O347 2.347 . S
Tb336 O350 2.366 . S
Tb336 O355 2.418 1_554 S
Tb336 O356 2.384 1_545 S
Tb336 O359 2.479 1_454 S
Tb336 O360 2.471 1_455 S
Eu337 O348 2.418 . S
Eu337 O349 2.384 . S
Eu337 O352 2.479 . S
Eu337 O353 2.471 . S
Eu337 O354 2.347 . S
Eu337 O357 2.366 . S
Eu337 C367 2.825 . S
C338 O354 1.259 1_556 S
C338 O355 1.265 . S
C339 O356 1.255 . S
C339 O357 1.265 1_565 S
C340 C342 1.380 . S
C340 C343 1.372 . S
C340 C346 1.507 . S
C341 C342 1.384 . S
C341 C345 1.387 . S
C341 H368 0.930 . S
C342 C340 1.380 . S
C342 C341 1.384 . S
C342 H369 0.931 . S
C343 C340 1.372 . S
C343 C344 1.390 . S
C343 H370 0.933 1_556 S
C344 C343 1.390 . S
C344 C345 1.391 . S
C344 H371 0.930 1_556 S
C345 C341 1.387 . S
C345 C344 1.391 . S
C346 Tb336 2.825 1_656 S
C346 C340 1.507 . S
C346 O359 1.238 . S
C346 O360 1.247 1_556 S
O347 Tb336 2.347 . S
O347 C351 1.259 . S
O348 Eu337 2.418 . S
O348 C351 1.265 . S
O349 Eu337 2.384 . S
O349 C358 1.255 . S
O350 Tb336 2.366 . S
O350 C358 1.265 . S
C351 O347 1.259 . S
C351 O348 1.265 . S
O352 Eu337 2.479 . S
O352 C367 1.238 . S
O353 Eu337 2.471 . S
O353 C367 1.247 . S
O354 Eu337 2.347 . S
O354 C338 1.259 1_554 S
O355 Tb336 2.418 1_556 S
O355 C338 1.265 . S
O356 Tb336 2.384 1_565 S
O356 C339 1.255 . S
O357 Eu337 2.366 . S
O357 C339 1.265 1_545 S
C358 O349 1.255 . S
C358 O350 1.265 . S
O359 Tb336 2.479 1_656 S
O359 C346 1.238 . S
O360 Tb336 2.471 1_655 S
O360 C346 1.247 1_554 S
C361 C364 1.380 . S
C361 C365 1.374 . S
C361 C367 1.507 . S
C362 C363 1.387 . S
C362 C366 1.391 . S
C363 C362 1.387 . S
C363 C364 1.384 . S
C363 H372 0.930 . S
C364 C361 1.380 . S
C364 C363 1.384 . S
C364 H373 0.931 . S
C365 C361 1.374 . S
C365 C366 1.390 . S
C365 H374 0.930 . S
C366 C362 1.391 . S
C366 C365 1.390 . S
C366 H375 0.930 1_545 S
C367 Eu337 2.825 . S
C367 O352 1.238 . S
C367 O353 1.247 . S
C367 C361 1.507 . S
H368 C341 0.930 . S
H369 C342 0.931 . S
H370 C343 0.933 1_554 S
H371 C344 0.930 1_554 S
H372 C363 0.930 . S
H373 C364 0.931 . S
H374 C365 0.930 . S
H375 C366 0.930 1_565 S
Tb376 C386 2.825 . S
Tb376 O387 2.347 . S
Tb376 O390 2.366 . S
Tb376 O395 2.418 . S
Tb376 O396 2.384 . S
Tb376 O399 2.479 . S
Tb376 O400 2.471 . S
Eu377 O388 2.418 . S
Eu377 O389 2.384 . S
Eu377 O392 2.479 . S
Eu377 O393 2.471 . S
Eu377 O394 2.347 . S
Eu377 O397 2.366 . S
Eu377 C407 2.825 . S
C378 O394 1.259 . S
C378 O395 1.265 . S
C379 O396 1.255 . S
C379 O397 1.265 . S
C380 C382 1.380 . S
C380 C383 1.374 . S
C380 C386 1.507 . S
C381 C382 1.384 . S
C381 C385 1.387 . S
C381 H408 0.930 . S
C382 C380 1.380 . S
C382 C381 1.384 . S
C382 H409 0.931 . S
C383 C380 1.374 . S
C383 C384 1.390 . S
C383 H410 0.930 . S
C384 C383 1.390 . S
C384 C385 1.391 . S
C384 H411 0.930 . S
C385 C381 1.387 . S
C385 C384 1.391 . S
C386 Tb376 2.825 . S
C386 C380 1.507 . S
C386 O399 1.238 . S
C386 O400 1.247 . S
O387 Tb376 2.347 . S
O387 C391 1.259 . S
O388 Eu377 2.418 . S
O388 C391 1.265 . S
O389 Eu377 2.384 . S
O389 C398 1.255 . S
O390 Tb376 2.366 . S
O390 C398 1.265 . S
C391 O387 1.259 . S
C391 O388 1.265 . S
O392 Eu377 2.479 . S
O392 C407 1.238 . S
O393 Eu377 2.471 . S
O393 C407 1.247 . S
O394 Eu377 2.347 . S
O394 C378 1.259 . S
O395 Tb376 2.418 . S
O395 C378 1.265 . S
O396 Tb376 2.384 . S
O396 C379 1.255 . S
O397 Eu377 2.366 . S
O397 C379 1.265 . S
C398 O389 1.255 . S
C398 O390 1.265 . S
O399 Tb376 2.479 . S
O399 C386 1.238 . S
O400 Tb376 2.471 . S
O400 C386 1.247 . S
C401 C404 1.380 . S
C401 C405 1.374 . S
C401 C407 1.507 . S
C402 C403 1.387 . S
C402 C406 1.391 . S
C403 C402 1.387 . S
C403 C404 1.384 . S
C403 H412 0.930 . S
C404 C401 1.380 . S
C404 C403 1.384 . S
C404 H413 0.931 . S
C405 C401 1.374 . S
C405 C406 1.390 . S
C405 H414 0.930 . S
C406 C402 1.391 . S
C406 C405 1.390 . S
C406 H415 0.930 . S
C407 Eu377 2.825 . S
C407 O392 1.238 . S
C407 O393 1.247 . S
C407 C401 1.507 . S
H408 C381 0.930 . S
H409 C382 0.931 . S
H410 C383 0.930 . S
H411 C384 0.930 . S
H412 C403 0.930 . S
H413 C404 0.931 . S
H414 C405 0.930 . S
H415 C406 0.930 . S
Tb416 C426 2.824 1_545 S
Tb416 O427 2.348 . S
Tb416 O430 2.366 1_545 S
Tb416 O435 2.419 1_545 S
Tb416 O436 2.385 . S
Tb416 O439 2.477 1_545 S
Tb416 O440 2.471 1_545 S
Eu417 O428 2.418 . S
Eu417 O429 2.384 . S
Eu417 O432 2.479 . S
Eu417 O433 2.471 . S
Eu417 O434 2.347 . S
Eu417 O437 2.366 . S
Eu417 C447 2.825 . S
C418 O434 1.259 . S
C418 O435 1.270 1_545 S
C419 O436 1.255 . S
C419 O437 1.265 . S
C420 C422 1.380 . S
C420 C423 1.374 . S
C420 C426 1.507 . S
C421 C422 1.384 . S
C421 C425 1.387 . S
C421 H448 0.930 . S
C422 C420 1.380 . S
C422 C421 1.384 . S
C422 H449 0.931 . S
C423 C420 1.374 . S
C423 C424 1.390 . S
C423 H450 0.930 . S
C424 C423 1.390 . S
C424 C425 1.391 . S
C424 H451 0.930 . S
C425 C421 1.387 . S
C425 C424 1.391 . S
C426 Tb416 2.824 1_565 S
C426 C420 1.507 . S
C426 O439 1.238 . S
C426 O440 1.247 . S
O427 Tb416 2.348 . S
O427 C431 1.259 . S
O428 Eu417 2.418 . S
O428 C431 1.265 . S
O429 Eu417 2.384 . S
O429 C438 1.255 . S
O430 Tb416 2.366 1_565 S
O430 C438 1.265 1_565 S
C431 O427 1.259 . S
C431 O428 1.265 . S
O432 Eu417 2.479 . S
O432 C447 1.238 . S
O433 Eu417 2.471 . S
O433 C447 1.247 . S
O434 Eu417 2.347 . S
O434 C418 1.259 . S
O435 Tb416 2.419 1_565 S
O435 C418 1.270 1_565 S
O436 Tb416 2.385 . S
O436 C419 1.255 . S
O437 Eu417 2.366 . S
O437 C419 1.265 . S
C438 O429 1.255 . S
C438 O430 1.265 1_545 S
O439 Tb416 2.477 1_565 S
O439 C426 1.238 . S
O440 Tb416 2.471 1_565 S
O440 C426 1.247 . S
C441 C444 1.380 . S
C441 C445 1.374 . S
C441 C447 1.507 . S
C442 C443 1.387 . S
C442 C446 1.391 . S
C443 C442 1.387 . S
C443 C444 1.384 . S
C443 H452 0.930 . S
C444 C441 1.380 . S
C444 C443 1.384 . S
C444 H453 0.931 . S
C445 C441 1.374 . S
C445 C446 1.390 . S
C445 H454 0.930 . S
C446 C442 1.391 . S
C446 C445 1.390 . S
C446 H455 0.930 . S
C447 Eu417 2.825 . S
C447 O432 1.238 . S
C447 O433 1.247 . S
C447 C441 1.507 . S
H448 C421 0.930 . S
H449 C422 0.931 . S
H450 C423 0.930 . S
H451 C424 0.930 . S
H452 C443 0.930 . S
H453 C444 0.931 . S
H454 C445 0.930 . S
H455 C446 0.930 . S
Tb456 C466 2.825 . S
Tb456 O467 2.347 . S
Tb456 O470 2.366 . S
Tb456 O475 2.418 . S
Tb456 O476 2.384 . S
Tb456 O479 2.479 . S
Tb456 O480 2.471 . S
Eu457 O468 2.418 . S
Eu457 O469 2.384 . S
Eu457 O472 2.479 . S
Eu457 O473 2.471 . S
Eu457 O474 2.347 . S
Eu457 O477 2.366 . S
Eu457 C487 2.825 . S
C458 O474 1.259 . S
C458 O475 1.265 . S
C459 O476 1.255 . S
C459 O477 1.265 . S
C460 C462 1.380 . S
C460 C463 1.374 . S
C460 C466 1.507 . S
C461 C462 1.384 . S
C461 C465 1.387 . S
C461 H488 0.930 . S
C462 C460 1.380 . S
C462 C461 1.384 . S
C462 H489 0.931 . S
C463 C460 1.374 . S
C463 C464 1.390 . S
C463 H490 0.930 . S
C464 C463 1.390 . S
C464 C465 1.391 . S
C464 H491 0.930 . S
C465 C461 1.387 . S
C465 C464 1.391 . S
C466 Tb456 2.825 . S
C466 C460 1.507 . S
C466 O479 1.238 . S
C466 O480 1.247 . S
O467 Tb456 2.347 . S
O467 C471 1.259 . S
O468 Eu457 2.418 . S
O468 C471 1.265 . S
O469 Eu457 2.384 . S
O469 C478 1.255 . S
O470 Tb456 2.366 . S
O470 C478 1.265 . S
C471 O467 1.259 . S
C471 O468 1.265 . S
O472 Eu457 2.479 . S
O472 C487 1.238 . S
O473 Eu457 2.471 . S
O473 C487 1.247 . S
O474 Eu457 2.347 . S
O474 C458 1.259 . S
O475 Tb456 2.418 . S
O475 C458 1.265 . S
O476 Tb456 2.384 . S
O476 C459 1.255 . S
O477 Eu457 2.366 . S
O477 C459 1.265 . S
C478 O469 1.255 . S
C478 O470 1.265 . S
O479 Tb456 2.479 . S
O479 C466 1.238 . S
O480 Tb456 2.471 . S
O480 C466 1.247 . S
C481 C484 1.380 . S
C481 C485 1.374 . S
C481 C487 1.507 . S
C482 C483 1.387 . S
C482 C486 1.391 . S
C483 C482 1.387 . S
C483 C484 1.384 . S
C483 H492 0.930 . S
C484 C481 1.380 . S
C484 C483 1.384 . S
C484 H493 0.931 . S
C485 C481 1.374 . S
C485 C486 1.390 . S
C485 H494 0.930 . S
C486 C482 1.391 . S
C486 C485 1.390 . S
C486 H495 0.930 . S
C487 Eu457 2.825 . S
C487 O472 1.238 . S
C487 O473 1.247 . S
C487 C481 1.507 . S
H488 C461 0.930 . S
H489 C462 0.931 . S
H490 C463 0.930 . S
H491 C464 0.930 . S
H492 C483 0.930 . S
H493 C484 0.931 . S
H494 C485 0.930 . S
H495 C486 0.930 . S
Tb496 C506 2.825 . S
Tb496 O507 2.347 . S
Tb496 O510 2.366 . S
Tb496 O515 2.418 . S
Tb496 O516 2.384 1_545 S
Tb496 O519 2.479 . S
Tb496 O520 2.471 . S
Eu497 O508 2.418 . S
Eu497 O509 2.384 . S
Eu497 O512 2.479 . S
Eu497 O513 2.471 . S
Eu497 O514 2.347 . S
Eu497 O517 2.366 . S
Eu497 C527 2.825 . S
C498 O514 1.259 . S
C498 O515 1.265 . S
C499 O516 1.255 . S
C499 O517 1.265 1_565 S
C500 C502 1.380 . S
C500 C503 1.374 1_455 S
C500 C506 1.507 . S
C501 C502 1.384 . S
C501 C505 1.387 1_455 S
C501 H528 0.930 . S
C502 C500 1.380 . S
C502 C501 1.384 . S
C502 H529 0.931 . S
C503 C500 1.374 1_655 S
C503 C504 1.390 . S
C503 H530 0.930 . S
C504 C503 1.390 . S
C504 C505 1.391 . S
C504 H531 0.930 . S
C505 C501 1.387 1_655 S
C505 C504 1.391 . S
C506 Tb496 2.825 . S
C506 C500 1.507 . S
C506 O519 1.238 . S
C506 O520 1.247 . S
O507 Tb496 2.347 . S
O507 C511 1.259 . S
O508 Eu497 2.418 . S
O508 C511 1.265 . S
O509 Eu497 2.384 . S
O509 C518 1.255 . S
O510 Tb496 2.366 . S
O510 C518 1.265 . S
C511 O507 1.259 . S
C511 O508 1.265 . S
O512 Eu497 2.479 . S
O512 C527 1.238 . S
O513 Eu497 2.471 . S
O513 C527 1.247 . S
O514 Eu497 2.347 . S
O514 C498 1.259 . S
O515 Tb496 2.418 . S
O515 C498 1.265 . S
O516 Tb496 2.384 1_565 S
O516 C499 1.255 . S
O517 Eu497 2.366 . S
O517 C499 1.265 1_545 S
C518 O509 1.255 . S
C518 O510 1.265 . S
O519 Tb496 2.479 . S
O519 C506 1.238 . S
O520 Tb496 2.471 . S
O520 C506 1.247 . S
C521 C524 1.380 . S
C521 C525 1.374 . S
C521 C527 1.507 . S
C522 C523 1.387 . S
C522 C526 1.391 . S
C523 C522 1.387 . S
C523 C524 1.384 . S
C523 H532 0.930 . S
C524 C521 1.380 . S
C524 C523 1.384 . S
C524 H533 0.931 . S
C525 C521 1.374 . S
C525 C526 1.390 . S
C525 H534 0.930 . S
C526 C522 1.391 . S
C526 C525 1.390 . S
C526 H535 0.930 . S
C527 Eu497 2.825 . S
C527 O512 1.238 . S
C527 O513 1.247 . S
C527 C521 1.507 . S
H528 C501 0.930 . S
H529 C502 0.931 . S
H530 C503 0.930 . S
H531 C504 0.930 . S
H532 C523 0.930 . S
H533 C524 0.931 . S
H534 C525 0.930 . S
H535 C526 0.930 . S
Tb536 C546 2.825 . S
Tb536 O547 2.347 . S
Tb536 O550 2.366 . S
Tb536 O555 2.418 . S
Tb536 O556 2.384 . S
Tb536 O559 2.479 . S
Tb536 O560 2.471 . S
Eu537 O548 2.418 . S
Eu537 O549 2.384 . S
Eu537 O552 2.479 . S
Eu537 O553 2.471 . S
Eu537 O554 2.347 . S
Eu537 O557 2.366 . S
Eu537 C567 2.825 . S
C538 O554 1.259 . S
C538 O555 1.265 . S
C539 O556 1.255 . S
C539 O557 1.265 . S
C540 C542 1.380 . S
C540 C543 1.374 . S
C540 C546 1.507 . S
C541 C542 1.384 . S
C541 C545 1.387 . S
C541 H568 0.930 . S
C542 C540 1.380 . S
C542 C541 1.384 . S
C542 H569 0.931 . S
C543 C540 1.374 . S
C543 C544 1.390 . S
C543 H570 0.930 . S
C544 C543 1.390 . S
C544 C545 1.391 . S
C544 H571 0.930 . S
C545 C541 1.387 . S
C545 C544 1.391 . S
C546 Tb536 2.825 . S
C546 C540 1.507 . S
C546 O559 1.238 . S
C546 O560 1.247 . S
O547 Tb536 2.347 . S
O547 C551 1.259 . S
O548 Eu537 2.418 . S
O548 C551 1.265 . S
O549 Eu537 2.384 . S
O549 C558 1.255 . S
O550 Tb536 2.366 . S
O550 C558 1.265 . S
C551 O547 1.259 . S
C551 O548 1.265 . S
O552 Eu537 2.479 . S
O552 C567 1.238 . S
O553 Eu537 2.471 . S
O553 C567 1.247 . S
O554 Eu537 2.347 . S
O554 C538 1.259 . S
O555 Tb536 2.418 . S
O555 C538 1.265 . S
O556 Tb536 2.384 . S
O556 C539 1.255 . S
O557 Eu537 2.366 . S
O557 C539 1.265 . S
C558 O549 1.255 . S
C558 O550 1.265 . S
O559 Tb536 2.479 . S
O559 C546 1.238 . S
O560 Tb536 2.471 . S
O560 C546 1.247 . S
C561 C564 1.380 . S
C561 C565 1.374 . S
C561 C567 1.507 . S
C562 C563 1.387 . S
C562 C566 1.391 . S
C563 C562 1.387 . S
C563 C564 1.384 . S
C563 H572 0.930 . S
C564 C561 1.380 . S
C564 C563 1.384 . S
C564 H573 0.931 . S
C565 C561 1.374 . S
C565 C566 1.390 . S
C565 H574 0.930 . S
C566 C562 1.391 . S
C566 C565 1.390 . S
C566 H575 0.930 . S
C567 Eu537 2.825 . S
C567 O552 1.238 . S
C567 O553 1.247 . S
C567 C561 1.507 . S
H568 C541 0.930 . S
H569 C542 0.931 . S
H570 C543 0.930 . S
H571 C544 0.930 . S
H572 C563 0.930 . S
H573 C564 0.931 . S
H574 C565 0.930 . S
H575 C566 0.930 . S
Tb576 C586 2.825 . S
Tb576 O587 2.347 . S
Tb576 O590 2.366 . S
Tb576 O595 2.418 1_545 S
Tb576 O596 2.384 . S
Tb576 O599 2.479 . S
Tb576 O600 2.471 . S
Eu577 O588 2.418 1_556 S
Eu577 O589 2.384 1_556 S
Eu577 O592 2.479 . S
Eu577 O593 2.471 . S
Eu577 O594 2.347 1_556 S
Eu577 O597 2.366 . S
Eu577 C607 2.825 . S
C578 O594 1.239 1_565 S
C578 O595 1.268 . S
C579 O596 1.255 . S
C579 O597 1.265 1_554 S
C580 C582 1.380 . S
C580 C583 1.374 . S
C580 C586 1.507 . S
C581 C582 1.384 . S
C581 C585 1.387 . S
C581 H608 0.930 1_545 S
C582 C580 1.380 . S
C582 C581 1.384 . S
C582 H609 0.931 1_545 S
C583 C580 1.374 . S
C583 C584 1.390 . S
C583 H610 0.930 . S
C584 C583 1.390 . S
C584 C585 1.391 . S
C584 H611 0.930 . S
C585 C581 1.387 . S
C585 C584 1.391 . S
C586 Tb576 2.825 . S
C586 C580 1.507 . S
C586 O599 1.238 . S
C586 O600 1.247 . S
O587 Tb576 2.347 . S
O587 C591 1.259 . S
O588 Eu577 2.418 1_554 S
O588 C591 1.265 . S
O589 Eu577 2.384 1_554 S
O589 C598 1.255 . S
O590 Tb576 2.366 . S
O590 C598 1.265 . S
C591 O587 1.259 . S
C591 O588 1.265 . S
O592 Eu577 2.479 . S
O592 C607 1.238 . S
O593 Eu577 2.471 . S
O593 C607 1.247 . S
O594 Eu577 2.347 1_554 S
O594 C578 1.239 1_545 S
O595 Tb576 2.418 1_565 S
O595 C578 1.268 . S
O596 Tb576 2.384 . S
O596 C579 1.255 . S
O597 Eu577 2.366 . S
O597 C579 1.265 1_556 S
C598 O589 1.255 . S
C598 O590 1.265 . S
O599 Tb576 2.479 . S
O599 C586 1.238 . S
O600 Tb576 2.471 . S
O600 C586 1.247 . S
C601 C604 1.380 . S
C601 C605 1.374 . S
C601 C607 1.507 . S
C602 C603 1.387 . S
C602 C606 1.391 . S
C603 C602 1.387 . S
C603 C604 1.384 . S
C603 H612 0.930 . S
C604 C601 1.380 . S
C604 C603 1.384 . S
C604 H613 0.931 . S
C605 C601 1.374 . S
C605 C606 1.390 . S
C605 H614 0.930 . S
C606 C602 1.391 . S
C606 C605 1.390 . S
C606 H615 0.930 . S
C607 Eu577 2.825 . S
C607 O592 1.238 . S
C607 O593 1.247 . S
C607 C601 1.507 . S
H608 C581 0.930 1_565 S
H609 C582 0.931 1_565 S
H610 C583 0.930 . S
H611 C584 0.930 . S
H612 C603 0.930 . S
H613 C604 0.931 . S
H614 C605 0.930 . S
H615 C606 0.930 . S
Tb616 C626 2.825 . S
Tb616 O627 2.347 . S
Tb616 O630 2.366 . S
Tb616 O635 2.418 . S
Tb616 O636 2.384 . S
Tb616 O639 2.479 . S
Tb616 O640 2.471 . S
Eu617 O628 2.418 . S
Eu617 O629 2.384 . S
Eu617 O632 2.479 . S
Eu617 O633 2.471 . S
Eu617 O634 2.347 . S
Eu617 O637 2.366 . S
Eu617 C647 2.825 . S
C618 O634 1.259 . S
C618 O635 1.265 . S
C619 O636 1.255 . S
C619 O637 1.265 . S
C620 C622 1.380 . S
C620 C623 1.374 . S
C620 C626 1.507 . S
C621 C622 1.384 . S
C621 C625 1.387 . S
C621 H648 0.930 . S
C622 C620 1.380 . S
C622 C621 1.384 . S
C622 H649 0.931 . S
C623 C620 1.374 . S
C623 C624 1.390 . S
C623 H650 0.930 . S
C624 C623 1.390 . S
C624 C625 1.391 . S
C624 H651 0.930 . S
C625 C621 1.387 . S
C625 C624 1.391 . S
C626 Tb616 2.825 . S
C626 C620 1.507 . S
C626 O639 1.238 . S
C626 O640 1.247 . S
O627 Tb616 2.347 . S
O627 C631 1.259 . S
O628 Eu617 2.418 . S
O628 C631 1.265 . S
O629 Eu617 2.384 . S
O629 C638 1.255 . S
O630 Tb616 2.366 . S
O630 C638 1.265 . S
C631 O627 1.259 . S
C631 O628 1.265 . S
O632 Eu617 2.479 . S
O632 C647 1.238 . S
O633 Eu617 2.471 . S
O633 C647 1.247 . S
O634 Eu617 2.347 . S
O634 C618 1.259 . S
O635 Tb616 2.418 . S
O635 C618 1.265 . S
O636 Tb616 2.384 . S
O636 C619 1.255 . S
O637 Eu617 2.366 . S
O637 C619 1.265 . S
C638 O629 1.255 . S
C638 O630 1.265 . S
O639 Tb616 2.479 . S
O639 C626 1.238 . S
O640 Tb616 2.471 . S
O640 C626 1.247 . S
C641 C644 1.380 . S
C641 C645 1.374 . S
C641 C647 1.507 . S
C642 C643 1.387 . S
C642 C646 1.391 . S
C643 C642 1.387 . S
C643 C644 1.384 . S
C643 H652 0.930 . S
C644 C641 1.380 . S
C644 C643 1.384 . S
C644 H653 0.931 . S
C645 C641 1.374 . S
C645 C646 1.390 . S
C645 H654 0.930 . S
C646 C642 1.391 . S
C646 C645 1.390 . S
C646 H655 0.930 . S
C647 Eu617 2.825 . S
C647 O632 1.238 . S
C647 O633 1.247 . S
C647 C641 1.507 . S
H648 C621 0.930 . S
H649 C622 0.931 . S
H650 C623 0.930 . S
H651 C624 0.930 . S
H652 C643 0.930 . S
H653 C644 0.931 . S
H654 C645 0.930 . S
H655 C646 0.930 . S
Tb656 C666 2.825 . S
Tb656 O667 2.347 1_556 S
Tb656 O670 2.366 . S
Tb656 O675 2.418 . S
Tb656 O676 2.384 1_556 S
Tb656 O679 2.479 . S
Tb656 O680 2.471 . S
Eu657 O668 2.418 . S
Eu657 O669 2.384 . S
Eu657 O672 2.479 . S
Eu657 O673 2.471 . S
Eu657 O674 2.347 . S
Eu657 O677 2.366 . S
Eu657 C687 2.825 . S
C658 O674 1.259 . S
C658 O675 1.265 1_554 S
C659 O676 1.255 . S
C659 O677 1.265 . S
C660 C662 1.380 . S
C660 C663 1.374 . S
C660 C666 1.507 . S
C661 C662 1.384 . S
C661 C665 1.387 . S
C661 H688 0.930 . S
C662 C660 1.380 . S
C662 C661 1.384 . S
C662 H689 0.931 . S
C663 C660 1.374 . S
C663 C664 1.390 . S
C663 H690 0.930 . S
C664 C663 1.390 . S
C664 C665 1.391 . S
C664 H691 0.930 . S
C665 C661 1.387 . S
C665 C664 1.391 . S
C666 Tb656 2.825 . S
C666 C660 1.507 . S
C666 O679 1.238 . S
C666 O680 1.247 . S
O667 Tb656 2.347 1_554 S
O667 C671 1.259 . S
O668 Eu657 2.418 . S
O668 C671 1.265 . S
O669 Eu657 2.384 . S
O669 C678 1.255 1_554 S
O670 Tb656 2.366 . S
O670 C678 1.265 . S
C671 O667 1.259 . S
C671 O668 1.265 . S
O672 Eu657 2.479 . S
O672 C687 1.238 . S
O673 Eu657 2.471 . S
O673 C687 1.247 . S
O674 Eu657 2.347 . S
O674 C658 1.259 . S
O675 Tb656 2.418 . S
O675 C658 1.265 1_556 S
O676 Tb656 2.384 1_554 S
O676 C659 1.255 . S
O677 Eu657 2.366 . S
O677 C659 1.265 . S
C678 O669 1.255 1_556 S
C678 O670 1.265 . S
O679 Tb656 2.479 . S
O679 C666 1.238 . S
O680 Tb656 2.471 . S
O680 C666 1.247 . S
C681 C684 1.380 . S
C681 C685 1.374 . S
C681 C687 1.507 . S
C682 C683 1.387 . S
C682 C686 1.391 . S
C683 C682 1.387 . S
C683 C684 1.384 . S
C683 H692 0.930 . S
C684 C681 1.380 . S
C684 C683 1.384 . S
C684 H693 0.931 . S
C685 C681 1.374 . S
C685 C686 1.390 . S
C685 H694 0.930 . S
C686 C682 1.391 . S
C686 C685 1.390 . S
C686 H695 0.930 . S
C687 Eu657 2.825 . S
C687 O672 1.238 . S
C687 O673 1.247 . S
C687 C681 1.507 . S
H688 C661 0.930 . S
H689 C662 0.931 . S
H690 C663 0.930 . S
H691 C664 0.930 . S
H692 C683 0.930 . S
H693 C684 0.931 . S
H694 C685 0.930 . S
H695 C686 0.930 . S
Tb696 C706 2.825 . S
Tb696 O707 2.347 . S
Tb696 O710 2.366 . S
Tb696 O715 2.418 . S
Tb696 O716 2.384 . S
Tb696 O719 2.479 . S
Tb696 O720 2.471 . S
Eu697 O708 2.418 . S
Eu697 O709 2.384 . S
Eu697 O712 2.479 . S
Eu697 O713 2.471 . S
Eu697 O714 2.347 . S
Eu697 O717 2.366 . S
Eu697 C727 2.825 . S
C698 O714 1.259 . S
C698 O715 1.265 . S
C699 O716 1.255 . S
C699 O717 1.265 . S
C700 C702 1.380 . S
C700 C703 1.374 . S
C700 C706 1.507 . S
C701 C702 1.384 . S
C701 C705 1.387 . S
C701 H728 0.930 . S
C702 C700 1.380 . S
C702 C701 1.384 . S
C702 H729 0.931 . S
C703 C700 1.374 . S
C703 C704 1.390 . S
C703 H730 0.930 . S
C704 C703 1.390 . S
C704 C705 1.391 . S
C704 H731 0.930 . S
C705 C701 1.387 . S
C705 C704 1.391 . S
C706 Tb696 2.825 . S
C706 C700 1.507 . S
C706 O719 1.238 . S
C706 O720 1.247 . S
O707 Tb696 2.347 . S
O707 C711 1.259 . S
O708 Eu697 2.418 . S
O708 C711 1.265 . S
O709 Eu697 2.384 . S
O709 C718 1.255 . S
O710 Tb696 2.366 . S
O710 C718 1.265 . S
C711 O707 1.259 . S
C711 O708 1.265 . S
O712 Eu697 2.479 . S
O712 C727 1.238 . S
O713 Eu697 2.471 . S
O713 C727 1.247 . S
O714 Eu697 2.347 . S
O714 C698 1.259 . S
O715 Tb696 2.418 . S
O715 C698 1.265 . S
O716 Tb696 2.384 . S
O716 C699 1.255 . S
O717 Eu697 2.366 . S
O717 C699 1.265 . S
C718 O709 1.255 . S
C718 O710 1.265 . S
O719 Tb696 2.479 . S
O719 C706 1.238 . S
O720 Tb696 2.471 . S
O720 C706 1.247 . S
C721 C724 1.380 . S
C721 C725 1.374 . S
C721 C727 1.507 . S
C722 C723 1.387 . S
C722 C726 1.391 . S
C723 C722 1.387 . S
C723 C724 1.384 . S
C723 H732 0.930 . S
C724 C721 1.380 . S
C724 C723 1.384 . S
C724 H733 0.931 . S
C725 C721 1.374 . S
C725 C726 1.390 . S
C725 H734 0.930 . S
C726 C722 1.391 . S
C726 C725 1.390 . S
C726 H735 0.930 . S
C727 Eu697 2.825 . S
C727 O712 1.238 . S
C727 O713 1.247 . S
C727 C721 1.507 . S
H728 C701 0.930 . S
H729 C702 0.931 . S
H730 C703 0.930 . S
H731 C704 0.930 . S
H732 C723 0.930 . S
H733 C724 0.931 . S
H734 C725 0.930 . S
H735 C726 0.930 . S
Tb736 C746 2.825 . S
Tb736 O747 2.347 . S
Tb736 O750 2.366 . S
Tb736 O755 2.418 . S
Tb736 O756 2.384 . S
Tb736 O759 2.479 . S
Tb736 O760 2.471 . S
Eu737 O748 2.418 . S
Eu737 O749 2.384 . S
Eu737 O752 2.479 . S
Eu737 O753 2.471 . S
Eu737 O754 2.347 . S
Eu737 O757 2.366 . S
Eu737 C767 2.825 . S
C738 O754 1.259 . S
C738 O755 1.265 . S
C739 O756 1.255 . S
C739 O757 1.265 . S
C740 C742 1.380 . S
C740 C743 1.374 . S
C740 C746 1.507 . S
C741 C742 1.384 . S
C741 C745 1.387 . S
C741 H768 0.930 . S
C742 C740 1.380 . S
C742 C741 1.384 . S
C742 H769 0.931 . S
C743 C740 1.374 . S
C743 C744 1.390 . S
C743 H770 0.930 . S
C744 C743 1.390 . S
C744 C745 1.391 . S
C744 H771 0.930 . S
C745 C741 1.387 . S
C745 C744 1.391 . S
C746 Tb736 2.825 . S
C746 C740 1.507 . S
C746 O759 1.238 . S
C746 O760 1.247 . S
O747 Tb736 2.347 . S
O747 C751 1.259 . S
O748 Eu737 2.418 . S
O748 C751 1.265 . S
O749 Eu737 2.384 . S
O749 C758 1.255 . S
O750 Tb736 2.366 . S
O750 C758 1.265 . S
C751 O747 1.259 . S
C751 O748 1.265 . S
O752 Eu737 2.479 . S
O752 C767 1.238 . S
O753 Eu737 2.471 . S
O753 C767 1.247 . S
O754 Eu737 2.347 . S
O754 C738 1.259 . S
O755 Tb736 2.418 . S
O755 C738 1.265 . S
O756 Tb736 2.384 . S
O756 C739 1.255 . S
O757 Eu737 2.366 . S
O757 C739 1.265 . S
C758 O749 1.255 . S
C758 O750 1.265 . S
O759 Tb736 2.479 . S
O759 C746 1.238 . S
O760 Tb736 2.471 . S
O760 C746 1.247 . S
C761 C764 1.380 . S
C761 C765 1.374 . S
C761 C767 1.507 . S
C762 C763 1.387 . S
C762 C766 1.391 . S
C763 C762 1.387 . S
C763 C764 1.384 . S
C763 H772 0.930 . S
C764 C761 1.380 . S
C764 C763 1.384 . S
C764 H773 0.931 . S
C765 C761 1.374 . S
C765 C766 1.390 . S
C765 H774 0.930 . S
C766 C762 1.391 . S
C766 C765 1.390 . S
C766 H775 0.930 . S
C767 Eu737 2.825 . S
C767 O752 1.238 . S
C767 O753 1.247 . S
C767 C761 1.507 . S
H768 C741 0.930 . S
H769 C742 0.931 . S
H770 C743 0.930 . S
H771 C744 0.930 . S
H772 C763 0.930 . S
H773 C764 0.931 . S
H774 C765 0.930 . S
H775 C766 0.930 . S
Tb776 C786 2.825 . S
Tb776 O787 2.347 . S
Tb776 O790 2.366 . S
Tb776 O795 2.418 . S
Tb776 O796 2.384 . S
Tb776 O799 2.479 . S
Tb776 O800 2.471 . S
Eu777 O788 2.418 . S
Eu777 O789 2.384 . S
Eu777 O792 2.479 . S
Eu777 O793 2.471 . S
Eu777 O794 2.347 . S
Eu777 O797 2.366 . S
Eu777 C807 2.825 . S
C778 O794 1.259 . S
C778 O795 1.265 . S
C779 O796 1.255 . S
C779 O797 1.265 . S
C780 C782 1.380 . S
C780 C783 1.374 . S
C780 C786 1.507 . S
C781 C782 1.384 . S
C781 C785 1.387 . S
C781 H808 0.930 . S
C782 C780 1.380 . S
C782 C781 1.384 . S
C782 H809 0.931 . S
C783 C780 1.374 . S
C783 C784 1.390 . S
C783 H810 0.930 . S
C784 C783 1.390 . S
C784 C785 1.391 . S
C784 H811 0.930 . S
C785 C781 1.387 . S
C785 C784 1.391 . S
C786 Tb776 2.825 . S
C786 C780 1.507 . S
C786 O799 1.238 . S
C786 O800 1.247 . S
O787 Tb776 2.347 . S
O787 C791 1.259 . S
O788 Eu777 2.418 . S
O788 C791 1.265 . S
O789 Eu777 2.384 . S
O789 C798 1.255 . S
O790 Tb776 2.366 . S
O790 C798 1.265 . S
C791 O787 1.259 . S
C791 O788 1.265 . S
O792 Eu777 2.479 . S
O792 C807 1.238 . S
O793 Eu777 2.471 . S
O793 C807 1.247 . S
O794 Eu777 2.347 . S
O794 C778 1.259 . S
O795 Tb776 2.418 . S
O795 C778 1.265 . S
O796 Tb776 2.384 . S
O796 C779 1.255 . S
O797 Eu777 2.366 . S
O797 C779 1.265 . S
C798 O789 1.255 . S
C798 O790 1.265 . S
O799 Tb776 2.479 . S
O799 C786 1.238 . S
O800 Tb776 2.471 . S
O800 C786 1.247 . S
C801 C804 1.380 . S
C801 C805 1.374 . S
C801 C807 1.507 . S
C802 C803 1.387 . S
C802 C806 1.391 . S
C803 C802 1.387 . S
C803 C804 1.384 . S
C803 H812 0.930 . S
C804 C801 1.380 . S
C804 C803 1.384 . S
C804 H813 0.931 . S
C805 C801 1.374 . S
C805 C806 1.390 . S
C805 H814 0.930 . S
C806 C802 1.391 . S
C806 C805 1.390 . S
C806 H815 0.930 . S
C807 Eu777 2.825 . S
C807 O792 1.238 . S
C807 O793 1.247 . S
C807 C801 1.507 . S
H808 C781 0.930 . S
H809 C782 0.931 . S
H810 C783 0.930 . S
H811 C784 0.930 . S
H812 C803 0.930 . S
H813 C804 0.931 . S
H814 C805 0.930 . S
H815 C806 0.930 . S
Tb816 C826 2.825 . S
Tb816 O827 2.347 . S
Tb816 O830 2.366 . S
Tb816 O835 2.418 . S
Tb816 O836 2.384 . S
Tb816 O839 2.479 . S
Tb816 O840 2.471 . S
Eu817 O828 2.418 . S
Eu817 O829 2.384 . S
Eu817 O832 2.479 . S
Eu817 O833 2.471 . S
Eu817 O834 2.347 . S
Eu817 O837 2.366 . S
Eu817 C847 2.825 . S
C818 O834 1.259 . S
C818 O835 1.265 . S
C819 O836 1.255 . S
C819 O837 1.265 . S
C820 C822 1.380 . S
C820 C823 1.374 . S
C820 C826 1.507 . S
C821 C822 1.384 . S
C821 C825 1.387 . S
C821 H848 0.930 . S
C822 C820 1.380 . S
C822 C821 1.384 . S
C822 H849 0.931 . S
C823 C820 1.374 . S
C823 C824 1.390 . S
C823 H850 0.930 . S
C824 C823 1.390 . S
C824 C825 1.391 . S
C824 H851 0.930 . S
C825 C821 1.387 . S
C825 C824 1.391 . S
C826 Tb816 2.825 . S
C826 C820 1.507 . S
C826 O839 1.238 . S
C826 O840 1.247 . S
O827 Tb816 2.347 . S
O827 C831 1.259 . S
O828 Eu817 2.418 . S
O828 C831 1.265 . S
O829 Eu817 2.384 . S
O829 C838 1.255 . S
O830 Tb816 2.366 . S
O830 C838 1.265 . S
C831 O827 1.259 . S
C831 O828 1.265 . S
O832 Eu817 2.479 . S
O832 C847 1.238 . S
O833 Eu817 2.471 . S
O833 C847 1.247 . S
O834 Eu817 2.347 . S
O834 C818 1.259 . S
O835 Tb816 2.418 . S
O835 C818 1.265 . S
O836 Tb816 2.384 . S
O836 C819 1.255 . S
O837 Eu817 2.366 . S
O837 C819 1.265 . S
C838 O829 1.255 . S
C838 O830 1.265 . S
O839 Tb816 2.479 . S
O839 C826 1.238 . S
O840 Tb816 2.471 . S
O840 C826 1.247 . S
C841 C844 1.380 . S
C841 C845 1.374 . S
C841 C847 1.507 . S
C842 C843 1.387 . S
C842 C846 1.391 . S
C843 C842 1.387 . S
C843 C844 1.384 . S
C843 H852 0.930 . S
C844 C841 1.380 . S
C844 C843 1.384 . S
C844 H853 0.931 . S
C845 C841 1.374 . S
C845 C846 1.390 . S
C845 H854 0.930 . S
C846 C842 1.391 . S
C846 C845 1.390 . S
C846 H855 0.930 . S
C847 Eu817 2.825 . S
C847 O832 1.238 . S
C847 O833 1.247 . S
C847 C841 1.507 . S
H848 C821 0.930 . S
H849 C822 0.931 . S
H850 C823 0.930 . S
H851 C824 0.930 . S
H852 C843 0.930 . S
H853 C844 0.931 . S
H854 C845 0.930 . S
H855 C846 0.930 . S
Tb856 C866 2.825 . S
Tb856 O867 2.347 . S
Tb856 O870 2.366 . S
Tb856 O875 2.418 . S
Tb856 O876 2.384 . S
Tb856 O879 2.479 . S
Tb856 O880 2.471 . S
Eu857 O868 2.418 . S
Eu857 O869 2.384 . S
Eu857 O872 2.479 . S
Eu857 O873 2.471 . S
Eu857 O874 2.347 . S
Eu857 O877 2.366 . S
Eu857 C887 2.825 . S
C858 O874 1.259 . S
C858 O875 1.265 . S
C859 O876 1.255 . S
C859 O877 1.265 . S
C860 C862 1.380 . S
C860 C863 1.374 . S
C860 C866 1.507 . S
C861 C862 1.384 . S
C861 C865 1.387 . S
C861 H888 0.930 . S
C862 C860 1.380 . S
C862 C861 1.384 . S
C862 H889 0.931 . S
C863 C860 1.374 . S
C863 C864 1.390 . S
C863 H890 0.930 . S
C864 C863 1.390 . S
C864 C865 1.391 . S
C864 H891 0.930 . S
C865 C861 1.387 . S
C865 C864 1.391 . S
C866 Tb856 2.825 . S
C866 C860 1.507 . S
C866 O879 1.238 . S
C866 O880 1.247 . S
O867 Tb856 2.347 . S
O867 C871 1.259 . S
O868 Eu857 2.418 . S
O868 C871 1.265 . S
O869 Eu857 2.384 . S
O869 C878 1.255 . S
O870 Tb856 2.366 . S
O870 C878 1.265 . S
C871 O867 1.259 . S
C871 O868 1.265 . S
O872 Eu857 2.479 . S
O872 C887 1.238 . S
O873 Eu857 2.471 . S
O873 C887 1.247 . S
O874 Eu857 2.347 . S
O874 C858 1.259 . S
O875 Tb856 2.418 . S
O875 C858 1.265 . S
O876 Tb856 2.384 . S
O876 C859 1.255 . S
O877 Eu857 2.366 . S
O877 C859 1.265 . S
C878 O869 1.255 . S
C878 O870 1.265 . S
O879 Tb856 2.479 . S
O879 C866 1.238 . S
O880 Tb856 2.471 . S
O880 C866 1.247 . S
C881 C884 1.380 . S
C881 C885 1.374 . S
C881 C887 1.507 . S
C882 C883 1.387 . S
C882 C886 1.391 . S
C883 C882 1.387 . S
C883 C884 1.384 . S
C883 H892 0.930 . S
C884 C881 1.380 . S
C884 C883 1.384 . S
C884 H893 0.931 . S
C885 C881 1.374 . S
C885 C886 1.390 . S
C885 H894 0.930 . S
C886 C882 1.391 . S
C886 C885 1.390 . S
C886 H895 0.930 . S
C887 Eu857 2.825 . S
C887 O872 1.238 . S
C887 O873 1.247 . S
C887 C881 1.507 . S
H888 C861 0.930 . S
H889 C862 0.931 . S
H890 C863 0.930 . S
H891 C864 0.930 . S
H892 C883 0.930 . S
H893 C884 0.931 . S
H894 C885 0.930 . S
H895 C886 0.930 . S
Tb896 C906 2.825 . S
Tb896 O907 2.347 . S
Tb896 O910 2.366 . S
Tb896 O915 2.418 . S
Tb896 O916 2.384 . S
Tb896 O919 2.479 . S
Tb896 O920 2.471 . S
Eu897 O908 2.418 . S
Eu897 O909 2.384 . S
Eu897 O912 2.479 . S
Eu897 O913 2.471 . S
Eu897 O914 2.347 . S
Eu897 O917 2.366 . S
Eu897 C927 2.825 . S
C898 O914 1.259 . S
C898 O915 1.265 . S
C899 O916 1.255 . S
C899 O917 1.265 . S
C900 C902 1.380 . S
C900 C903 1.374 . S
C900 C906 1.507 . S
C901 C902 1.384 . S
C901 C905 1.387 . S
C901 H928 0.930 . S
C902 C900 1.380 . S
C902 C901 1.384 . S
C902 H929 0.931 . S
C903 C900 1.374 . S
C903 C904 1.390 . S
C903 H930 0.930 . S
C904 C903 1.390 . S
C904 C905 1.391 . S
C904 H931 0.930 . S
C905 C901 1.387 . S
C905 C904 1.391 . S
C906 Tb896 2.825 . S
C906 C900 1.507 . S
C906 O919 1.238 . S
C906 O920 1.247 . S
O907 Tb896 2.347 . S
O907 C911 1.259 . S
O908 Eu897 2.418 . S
O908 C911 1.265 . S
O909 Eu897 2.384 . S
O909 C918 1.255 . S
O910 Tb896 2.366 . S
O910 C918 1.265 . S
C911 O907 1.259 . S
C911 O908 1.265 . S
O912 Eu897 2.479 . S
O912 C927 1.238 . S
O913 Eu897 2.471 . S
O913 C927 1.247 . S
O914 Eu897 2.347 . S
O914 C898 1.259 . S
O915 Tb896 2.418 . S
O915 C898 1.265 . S
O916 Tb896 2.384 . S
O916 C899 1.255 . S
O917 Eu897 2.366 . S
O917 C899 1.265 . S
C918 O909 1.255 . S
C918 O910 1.265 . S
O919 Tb896 2.479 . S
O919 C906 1.238 . S
O920 Tb896 2.471 . S
O920 C906 1.247 . S
C921 C924 1.380 . S
C921 C925 1.374 . S
C921 C927 1.507 . S
C922 C923 1.387 . S
C922 C926 1.391 . S
C923 C922 1.387 . S
C923 C924 1.384 . S
C923 H932 0.930 . S
C924 C921 1.380 . S
C924 C923 1.384 . S
C924 H933 0.931 . S
C925 C921 1.374 . S
C925 C926 1.390 . S
C925 H934 0.930 . S
C926 C922 1.391 . S
C926 C925 1.390 . S
C926 H935 0.930 . S
C927 Eu897 2.825 . S
C927 O912 1.238 . S
C927 O913 1.247 . S
C927 C921 1.507 . S
H928 C901 0.930 . S
H929 C902 0.931 . S
H930 C903 0.930 . S
H931 C904 0.930 . S
H932 C923 0.930 . S
H933 C924 0.931 . S
H934 C925 0.930 . S
H935 C926 0.930 . S
Tb936 C946 2.825 1_554 S
Tb936 O947 2.347 1_554 S
Tb936 O950 2.366 . S
Tb936 O955 2.418 . S
Tb936 O956 2.384 . S
Tb936 O959 2.479 . S
Tb936 O960 2.471 1_554 S
Eu937 O948 2.418 1_554 S
Eu937 O949 2.384 . S
Eu937 O952 2.479 . S
Eu937 O953 2.471 . S
Eu937 O954 2.347 . S
Eu937 O957 2.366 . S
Eu937 C967 2.825 . S
C938 O954 1.259 . S
C938 O955 1.265 . S
C939 O956 1.255 . S
C939 O957 1.265 . S
C940 C942 1.380 . S
C940 C943 1.374 . S
C940 C946 1.507 . S
C941 C942 1.384 . S
C941 C945 1.387 . S
C941 H968 0.930 . S
C942 C940 1.380 . S
C942 C941 1.384 . S
C942 H969 0.931 1_556 S
C943 C940 1.374 . S
C943 C944 1.390 . S
C943 H970 0.930 . S
C944 C943 1.390 . S
C944 C945 1.391 . S
C944 H971 0.930 . S
C945 C941 1.387 . S
C945 C944 1.391 . S
C946 Tb936 2.825 1_556 S
C946 C940 1.507 . S
C946 O959 1.238 1_556 S
C946 O960 1.247 . S
O947 Tb936 2.347 1_556 S
O947 C951 1.259 . S
O948 Eu937 2.418 1_556 S
O948 C951 1.265 . S
O949 Eu937 2.384 . S
O949 C958 1.255 . S
O950 Tb936 2.366 . S
O950 C958 1.265 . S
C951 O947 1.259 . S
C951 O948 1.265 . S
O952 Eu937 2.479 . S
O952 C967 1.238 . S
O953 Eu937 2.471 . S
O953 C967 1.247 . S
O954 Eu937 2.347 . S
O954 C938 1.259 . S
O955 Tb936 2.418 . S
O955 C938 1.265 . S
O956 Tb936 2.384 . S
O956 C939 1.255 . S
O957 Eu937 2.366 . S
O957 C939 1.265 . S
C958 O949 1.255 . S
C958 O950 1.265 . S
O959 Tb936 2.479 . S
O959 C946 1.238 1_554 S
O960 Tb936 2.471 1_556 S
O960 C946 1.247 . S
C961 C964 1.380 . S
C961 C965 1.374 . S
C961 C967 1.507 . S
C962 C963 1.387 . S
C962 C966 1.391 . S
C963 C962 1.387 . S
C963 C964 1.384 . S
C963 H972 0.930 . S
C964 C961 1.380 . S
C964 C963 1.384 . S
C964 H973 0.931 . S
C965 C961 1.374 . S
C965 C966 1.390 . S
C965 H974 0.930 . S
C966 C962 1.391 . S
C966 C965 1.390 . S
C966 H975 0.930 . S
C967 Eu937 2.825 . S
C967 O952 1.238 . S
C967 O953 1.247 . S
C967 C961 1.507 . S
H968 C941 0.930 . S
H969 C942 0.931 1_554 S
H970 C943 0.930 . S
H971 C944 0.930 . S
H972 C963 0.930 . S
H973 C964 0.931 . S
H974 C965 0.930 . S
H975 C966 0.930 . S
H976 C988 0.930 1_655 S
H977 C990 0.930 . S
H978 C991 0.930 . S
H979 C995 0.998 . S
H980 C995 0.937 1_455 S
H981 C995 0.977 . S
H982 C996 0.960 . S
H983 C996 0.961 . S
H984 C996 0.959 . S
H985 C999 0.929 . S
H986 C1000 0.931 . S
H987 C1002 0.930 . S
C988 H976 0.930 1_455 S
C988 C989 1.399 . S
C988 C993 1.399 . S
C989 C988 1.399 . S
C989 C990 1.376 . S
C990 H977 0.930 . S
C990 C989 1.376 . S
C990 C991 1.388 . S
C991 H978 0.930 . S
C991 C990 1.388 . S
C991 C992 1.390 . S
C992 C991 1.390 . S
C992 C993 1.394 . S
C992 C998 1.465 . S
C993 C988 1.399 . S
C993 C992 1.394 . S
C993 C994 1.516 . S
C994 C993 1.516 . S
C994 C995 1.474 1_455 S
C994 C996 1.561 . S
C994 C997 1.526 . S
C995 H979 0.998 . S
C995 H980 0.937 1_655 S
C995 H981 0.977 . S
C995 C994 1.474 1_655 S
C996 H982 0.960 . S
C996 H983 0.961 . S
C996 H984 0.959 . S
C996 C994 1.561 . S
C997 C994 1.526 . S
C997 C998 1.396 . S
C997 C1002 1.390 . S
C998 C992 1.465 . S
C998 C997 1.396 . S
C998 C999 1.399 1_556 S
C999 H985 0.929 . S
C999 C998 1.399 1_554 S
C999 C1000 1.385 . S
C1000 H986 0.931 . S
C1000 C999 1.385 . S
C1000 C1001 1.389 . S
C1001 C1000 1.389 . S
C1001 C1002 1.387 1_554 S
C1002 H987 0.930 . S
C1002 C997 1.390 . S
C1002 C1001 1.387 1_556 S
H1003 C1015 0.930 . S
H1004 C1017 0.930 . S
H1005 C1018 0.930 . S
H1006 C1022 0.959 . S
H1007 C1022 0.959 . S
H1008 C1022 0.961 . S
H1009 C1023 0.960 . S
H1010 C1023 0.961 . S
H1011 C1023 0.959 . S
H1012 C1026 0.929 . S
H1013 C1027 0.931 . S
H1014 C1029 0.930 . S
C1015 H1003 0.930 . S
C1015 C1016 1.399 . S
C1015 C1020 1.399 . S
C1016 C1015 1.399 . S
C1016 C1017 1.376 . S
C1017 H1004 0.930 . S
C1017 C1016 1.376 . S
C1017 C1018 1.388 . S
C1018 H1005 0.930 . S
C1018 C1017 1.388 . S
C1018 C1019 1.390 . S
C1019 C1018 1.390 . S
C1019 C1020 1.394 . S
C1019 C1025 1.465 . S
C1020 C1015 1.399 . S
C1020 C1019 1.394 . S
C1020 C1021 1.516 . S
C1021 C1020 1.516 . S
C1021 C1022 1.502 . S
C1021 C1023 1.561 . S
C1021 C1024 1.526 . S
C1022 H1006 0.959 . S
C1022 H1007 0.959 . S
C1022 H1008 0.961 . S
C1022 C1021 1.502 . S
C1023 H1009 0.960 . S
C1023 H1010 0.961 . S
C1023 H1011 0.959 . S
C1023 C1021 1.561 . S
C1024 C1021 1.526 . S
C1024 C1025 1.396 . S
C1024 C1029 1.390 . S
C1025 C1019 1.465 . S
C1025 C1024 1.396 . S
C1025 C1026 1.399 . S
C1026 H1012 0.929 . S
C1026 C1025 1.399 . S
C1026 C1027 1.385 . S
C1027 H1013 0.931 . S
C1027 C1026 1.385 . S
C1027 C1028 1.389 . S
C1028 C1027 1.389 . S
C1028 C1029 1.387 . S
C1029 H1014 0.930 . S
C1029 C1024 1.390 . S
C1029 C1028 1.387 . S
H1030 C1042 0.930 . S
H1031 C1044 0.930 . S
H1032 C1045 0.930 . S
H1033 C1049 0.959 . S
H1034 C1049 0.959 . S
H1035 C1049 0.961 . S
H1036 C1050 0.960 . S
H1037 C1050 0.961 . S
H1038 C1050 0.959 . S
H1039 C1053 0.929 . S
H1040 C1054 0.931 . S
H1041 C1056 0.930 . S
C1042 H1030 0.930 . S
C1042 C1043 1.399 . S
C1042 C1047 1.399 . S
C1043 C1042 1.399 . S
C1043 C1044 1.376 . S
C1044 H1031 0.930 . S
C1044 C1043 1.376 . S
C1044 C1045 1.388 . S
C1045 H1032 0.930 . S
C1045 C1044 1.388 . S
C1045 C1046 1.390 . S
C1046 C1045 1.390 . S
C1046 C1047 1.394 . S
C1046 C1052 1.465 . S
C1047 C1042 1.399 . S
C1047 C1046 1.394 . S
C1047 C1048 1.516 . S
C1048 C1047 1.516 . S
C1048 C1049 1.502 . S
C1048 C1050 1.561 . S
C1048 C1051 1.526 . S
C1049 H1033 0.959 . S
C1049 H1034 0.959 . S
C1049 H1035 0.961 . S
C1049 C1048 1.502 . S
C1050 H1036 0.960 . S
C1050 H1037 0.961 . S
C1050 H1038 0.959 . S
C1050 C1048 1.561 . S
C1051 C1048 1.526 . S
C1051 C1052 1.396 . S
C1051 C1056 1.390 . S
C1052 C1046 1.465 . S
C1052 C1051 1.396 . S
C1052 C1053 1.399 . S
C1053 H1039 0.929 . S
C1053 C1052 1.399 . S
C1053 C1054 1.385 . S
C1054 H1040 0.931 . S
C1054 C1053 1.385 . S
C1054 C1055 1.389 . S
C1055 C1054 1.389 . S
C1055 C1056 1.387 . S
C1056 H1041 0.930 . S
C1056 C1051 1.390 . S
C1056 C1055 1.387 . S
H1057 C1069 0.930 . S
H1058 C1071 0.930 . S
H1059 C1072 0.930 . S
H1060 C1076 0.959 . S
H1061 C1076 0.959 . S
H1062 C1076 0.961 . S
H1063 C1077 0.960 . S
H1064 C1077 0.961 . S
H1065 C1077 0.959 . S
H1066 C1080 0.929 . S
H1067 C1081 0.931 . S
H1068 C1083 0.930 . S
C1069 H1057 0.930 . S
C1069 C1070 1.399 . S
C1069 C1074 1.399 . S
C1070 C1069 1.399 . S
C1070 C1071 1.376 . S
C1071 H1058 0.930 . S
C1071 C1070 1.376 . S
C1071 C1072 1.388 . S
C1072 H1059 0.930 . S
C1072 C1071 1.388 . S
C1072 C1073 1.390 . S
C1073 C1072 1.390 . S
C1073 C1074 1.394 . S
C1073 C1079 1.465 . S
C1074 C1069 1.399 . S
C1074 C1073 1.394 . S
C1074 C1075 1.516 . S
C1075 C1074 1.516 . S
C1075 C1076 1.502 . S
C1075 C1077 1.561 . S
C1075 C1078 1.526 . S
C1076 H1060 0.959 . S
C1076 H1061 0.959 . S
C1076 H1062 0.961 . S
C1076 C1075 1.502 . S
C1077 H1063 0.960 . S
C1077 H1064 0.961 . S
C1077 H1065 0.959 . S
C1077 C1075 1.561 . S
C1078 C1075 1.526 . S
C1078 C1079 1.396 . S
C1078 C1083 1.390 . S
C1079 C1073 1.465 . S
C1079 C1078 1.396 . S
C1079 C1080 1.399 . S
C1080 H1066 0.929 . S
C1080 C1079 1.399 . S
C1080 C1081 1.385 . S
C1081 H1067 0.931 . S
C1081 C1080 1.385 . S
C1081 C1082 1.389 . S
C1082 C1081 1.389 . S
C1082 C1083 1.387 . S
C1083 H1068 0.930 . S
C1083 C1078 1.390 . S
C1083 C1082 1.387 . S
H1084 C1096 0.930 . S
H1085 C1098 0.930 . S
H1086 C1099 0.930 . S
H1087 C1103 0.959 . S
H1088 C1103 0.959 . S
H1089 C1103 0.961 . S
H1090 C1104 0.960 . S
H1091 C1104 0.961 . S
H1092 C1104 0.959 . S
H1093 C1107 0.929 . S
H1094 C1108 0.931 . S
H1095 C1110 0.930 . S
C1096 H1084 0.930 . S
C1096 C1097 1.399 . S
C1096 C1101 1.399 . S
C1097 C1096 1.399 . S
C1097 C1098 1.376 . S
C1098 H1085 0.930 . S
C1098 C1097 1.376 . S
C1098 C1099 1.388 . S
C1099 H1086 0.930 . S
C1099 C1098 1.388 . S
C1099 C1100 1.390 . S
C1100 C1099 1.390 . S
C1100 C1101 1.394 . S
C1100 C1106 1.465 . S
C1101 C1096 1.399 . S
C1101 C1100 1.394 . S
C1101 C1102 1.516 . S
C1102 C1101 1.516 . S
C1102 C1103 1.502 . S
C1102 C1104 1.561 . S
C1102 C1105 1.526 . S
C1103 H1087 0.959 . S
C1103 H1088 0.959 . S
C1103 H1089 0.961 . S
C1103 C1102 1.502 . S
C1104 H1090 0.960 . S
C1104 H1091 0.961 . S
C1104 H1092 0.959 . S
C1104 C1102 1.561 . S
C1105 C1102 1.526 . S
C1105 C1106 1.396 . S
C1105 C1110 1.390 . S
C1106 C1100 1.465 . S
C1106 C1105 1.396 . S
C1106 C1107 1.399 . S
C1107 H1093 0.929 . S
C1107 C1106 1.399 . S
C1107 C1108 1.385 . S
C1108 H1094 0.931 . S
C1108 C1107 1.385 . S
C1108 C1109 1.389 . S
C1109 C1108 1.389 . S
C1109 C1110 1.387 . S
C1110 H1095 0.930 . S
C1110 C1105 1.390 . S
C1110 C1109 1.387 . S
H1111 C1123 0.930 . S
H1112 C1125 0.930 . S
H1113 C1126 0.930 . S
H1114 C1130 0.959 . S
H1115 C1130 0.959 . S
H1116 C1130 0.961 . S
H1117 C1131 0.960 . S
H1118 C1131 0.961 . S
H1119 C1131 0.959 . S
H1120 C1134 0.929 . S
H1121 C1135 0.931 . S
H1122 C1137 0.930 . S
C1123 H1111 0.930 . S
C1123 C1124 1.399 . S
C1123 C1128 1.399 . S
C1124 C1123 1.399 . S
C1124 C1125 1.376 . S
C1125 H1112 0.930 . S
C1125 C1124 1.376 . S
C1125 C1126 1.388 . S
C1126 H1113 0.930 . S
C1126 C1125 1.388 . S
C1126 C1127 1.390 . S
C1127 C1126 1.390 . S
C1127 C1128 1.394 . S
C1127 C1133 1.465 . S
C1128 C1123 1.399 . S
C1128 C1127 1.394 . S
C1128 C1129 1.516 . S
C1129 C1128 1.516 . S
C1129 C1130 1.502 . S
C1129 C1131 1.561 . S
C1129 C1132 1.526 . S
C1130 H1114 0.959 . S
C1130 H1115 0.959 . S
C1130 H1116 0.961 . S
C1130 C1129 1.502 . S
C1131 H1117 0.960 . S
C1131 H1118 0.961 . S
C1131 H1119 0.959 . S
C1131 C1129 1.561 . S
C1132 C1129 1.526 . S
C1132 C1133 1.396 . S
C1132 C1137 1.390 . S
C1133 C1127 1.465 . S
C1133 C1132 1.396 . S
C1133 C1134 1.399 . S
C1134 H1120 0.929 . S
C1134 C1133 1.399 . S
C1134 C1135 1.385 . S
C1135 H1121 0.931 . S
C1135 C1134 1.385 . S
C1135 C1136 1.389 . S
C1136 C1135 1.389 . S
C1136 C1137 1.387 . S
C1137 H1122 0.930 . S
C1137 C1132 1.390 . S
C1137 C1136 1.387 . S
H1138 C1150 0.930 . S
H1139 C1152 0.930 . S
H1140 C1153 0.930 . S
H1141 C1157 0.959 . S
H1142 C1157 0.959 . S
H1143 C1157 0.961 . S
H1144 C1158 0.960 . S
H1145 C1158 0.961 . S
H1146 C1158 0.959 . S
H1147 C1161 0.929 . S
H1148 C1162 0.931 . S
H1149 C1164 0.930 . S
C1150 H1138 0.930 . S
C1150 C1151 1.399 . S
C1150 C1155 1.399 . S
C1151 C1150 1.399 . S
C1151 C1152 1.376 . S
C1152 H1139 0.930 . S
C1152 C1151 1.376 . S
C1152 C1153 1.388 . S
C1153 H1140 0.930 . S
C1153 C1152 1.388 . S
C1153 C1154 1.390 . S
C1154 C1153 1.390 . S
C1154 C1155 1.394 . S
C1154 C1160 1.465 . S
C1155 C1150 1.399 . S
C1155 C1154 1.394 . S
C1155 C1156 1.516 . S
C1156 C1155 1.516 . S
C1156 C1157 1.502 . S
C1156 C1158 1.561 . S
C1156 C1159 1.526 . S
C1157 H1141 0.959 . S
C1157 H1142 0.959 . S
C1157 H1143 0.961 . S
C1157 C1156 1.502 . S
C1158 H1144 0.960 . S
C1158 H1145 0.961 . S
C1158 H1146 0.959 . S
C1158 C1156 1.561 . S
C1159 C1156 1.526 . S
C1159 C1160 1.396 . S
C1159 C1164 1.390 . S
C1160 C1154 1.465 . S
C1160 C1159 1.396 . S
C1160 C1161 1.399 . S
C1161 H1147 0.929 . S
C1161 C1160 1.399 . S
C1161 C1162 1.385 . S
C1162 H1148 0.931 . S
C1162 C1161 1.385 . S
C1162 C1163 1.389 . S
C1163 C1162 1.389 . S
C1163 C1164 1.387 . S
C1164 H1149 0.930 . S
C1164 C1159 1.390 . S
C1164 C1163 1.387 . S
H1165 C1177 0.930 . S
H1166 C1179 0.930 . S
H1167 C1180 0.930 . S
H1168 C1184 0.959 . S
H1169 C1184 0.959 . S
H1170 C1184 0.961 . S
H1171 C1185 0.960 . S
H1172 C1185 0.961 . S
H1173 C1185 0.959 . S
H1174 C1188 0.929 . S
H1175 C1189 0.931 . S
H1176 C1191 0.930 . S
C1177 H1165 0.930 . S
C1177 C1178 1.399 . S
C1177 C1182 1.399 . S
C1178 C1177 1.399 . S
C1178 C1179 1.376 . S
C1179 H1166 0.930 . S
C1179 C1178 1.376 . S
C1179 C1180 1.388 . S
C1180 H1167 0.930 . S
C1180 C1179 1.388 . S
C1180 C1181 1.390 . S
C1181 C1180 1.390 . S
C1181 C1182 1.394 . S
C1181 C1187 1.465 . S
C1182 C1177 1.399 . S
C1182 C1181 1.394 . S
C1182 C1183 1.516 . S
C1183 C1182 1.516 . S
C1183 C1184 1.502 . S
C1183 C1185 1.561 . S
C1183 C1186 1.526 . S
C1184 H1168 0.959 . S
C1184 H1169 0.959 . S
C1184 H1170 0.961 . S
C1184 C1183 1.502 . S
C1185 H1171 0.960 . S
C1185 H1172 0.961 . S
C1185 H1173 0.959 . S
C1185 C1183 1.561 . S
C1186 C1183 1.526 . S
C1186 C1187 1.396 . S
C1186 C1191 1.390 . S
C1187 C1181 1.465 . S
C1187 C1186 1.396 . S
C1187 C1188 1.399 . S
C1188 H1174 0.929 . S
C1188 C1187 1.399 . S
C1188 C1189 1.385 . S
C1189 H1175 0.931 . S
C1189 C1188 1.385 . S
C1189 C1190 1.389 . S
C1190 C1189 1.389 . S
C1190 C1191 1.387 . S
C1191 H1176 0.930 . S
C1191 C1186 1.390 . S
C1191 C1190 1.387 . S
H1192 C1204 0.930 . S
H1193 C1206 0.930 . S
H1194 C1207 0.930 . S
H1195 C1211 0.959 . S
H1196 C1211 0.957 . S
H1197 C1211 0.961 . S
H1198 C1212 0.960 . S
H1199 C1212 0.961 . S
H1200 C1212 0.959 . S
H1201 C1215 0.928 1_665 S
H1202 C1216 0.931 . S
H1203 C1218 0.930 . S
C1204 H1192 0.930 . S
C1204 C1205 1.399 . S
C1204 C1209 1.399 . S
C1205 C1204 1.399 . S
C1205 C1206 1.376 1_545 S
C1206 H1193 0.930 . S
C1206 C1205 1.376 1_565 S
C1206 C1207 1.388 . S
C1207 H1194 0.930 . S
C1207 C1206 1.388 . S
C1207 C1208 1.390 1_565 S
C1208 C1207 1.390 1_545 S
C1208 C1209 1.394 . S
C1208 C1214 1.465 . S
C1209 C1204 1.399 . S
C1209 C1208 1.394 . S
C1209 C1210 1.516 . S
C1210 C1209 1.516 . S
C1210 C1211 1.502 . S
C1210 C1212 1.561 1_655 S
C1210 C1213 1.526 1_655 S
C1211 H1195 0.959 . S
C1211 H1196 0.957 . S
C1211 H1197 0.961 . S
C1211 C1210 1.502 . S
C1212 H1198 0.960 . S
C1212 H1199 0.961 . S
C1212 H1200 0.959 . S
C1212 C1210 1.561 1_455 S
C1213 C1210 1.526 1_455 S
C1213 C1214 1.396 1_455 S
C1213 C1218 1.390 . S
C1214 C1208 1.465 . S
C1214 C1213 1.396 1_655 S
C1214 C1215 1.394 1_655 S
C1215 H1201 0.928 1_445 S
C1215 C1214 1.394 1_455 S
C1215 C1216 1.392 . S
C1216 H1202 0.931 . S
C1216 C1215 1.392 . S
C1216 C1217 1.389 . S
C1217 C1216 1.389 . S
C1217 C1218 1.387 . S
C1218 H1203 0.930 . S
C1218 C1213 1.390 . S
C1218 C1217 1.387 . S
H1219 C1231 0.930 . S
H1220 C1233 0.930 . S
H1221 C1234 0.930 . S
H1222 C1238 0.959 . S
H1223 C1238 0.959 . S
H1224 C1238 0.961 . S
H1225 C1239 0.960 . S
H1226 C1239 0.961 . S
H1227 C1239 0.959 . S
H1228 C1242 0.929 . S
H1229 C1243 0.931 . S
H1230 C1245 0.930 . S
C1231 H1219 0.930 . S
C1231 C1232 1.399 . S
C1231 C1236 1.399 . S
C1232 C1231 1.399 . S
C1232 C1233 1.376 . S
C1233 H1220 0.930 . S
C1233 C1232 1.376 . S
C1233 C1234 1.388 . S
C1234 H1221 0.930 . S
C1234 C1233 1.388 . S
C1234 C1235 1.390 . S
C1235 C1234 1.390 . S
C1235 C1236 1.394 . S
C1235 C1241 1.465 . S
C1236 C1231 1.399 . S
C1236 C1235 1.394 . S
C1236 C1237 1.516 . S
C1237 C1236 1.516 . S
C1237 C1238 1.502 . S
C1237 C1239 1.561 . S
C1237 C1240 1.526 . S
C1238 H1222 0.959 . S
C1238 H1223 0.959 . S
C1238 H1224 0.961 . S
C1238 C1237 1.502 . S
C1239 H1225 0.960 . S
C1239 H1226 0.961 . S
C1239 H1227 0.959 . S
C1239 C1237 1.561 . S
C1240 C1237 1.526 . S
C1240 C1241 1.396 . S
C1240 C1245 1.390 . S
C1241 C1235 1.465 . S
C1241 C1240 1.396 . S
C1241 C1242 1.399 . S
C1242 H1228 0.929 . S
C1242 C1241 1.399 . S
C1242 C1243 1.385 . S
C1243 H1229 0.931 . S
C1243 C1242 1.385 . S
C1243 C1244 1.389 . S
C1244 C1243 1.389 . S
C1244 C1245 1.387 . S
C1245 H1230 0.930 . S
C1245 C1240 1.390 . S
C1245 C1244 1.387 . S
H1246 C1258 0.930 . S
H1247 C1260 0.930 . S
H1248 C1261 0.930 . S
H1249 C1265 0.959 . S
H1250 C1265 0.959 . S
H1251 C1265 0.961 . S
H1252 C1266 0.960 . S
H1253 C1266 0.961 . S
H1254 C1266 0.959 . S
H1255 C1269 0.929 . S
H1256 C1270 0.910 1_565 S
H1257 C1272 0.930 . S
C1258 H1246 0.930 . S
C1258 C1259 1.399 1_545 S
C1258 C1263 1.399 . S
C1259 C1258 1.399 1_565 S
C1259 C1260 1.376 . S
C1260 H1247 0.930 . S
C1260 C1259 1.376 . S
C1260 C1261 1.388 . S
C1261 H1248 0.930 . S
C1261 C1260 1.388 . S
C1261 C1262 1.390 . S
C1262 C1261 1.390 . S
C1262 C1263 1.394 1_565 S
C1262 C1268 1.465 1_565 S
C1263 C1258 1.399 . S
C1263 C1262 1.394 1_545 S
C1263 C1264 1.516 . S
C1264 C1263 1.516 . S
C1264 C1265 1.502 . S
C1264 C1266 1.561 . S
C1264 C1267 1.526 . S
C1265 H1249 0.959 . S
C1265 H1250 0.959 . S
C1265 H1251 0.961 . S
C1265 C1264 1.502 . S
C1266 H1252 0.960 . S
C1266 H1253 0.961 . S
C1266 H1254 0.959 . S
C1266 C1264 1.561 . S
C1267 C1264 1.526 . S
C1267 C1268 1.396 . S
C1267 C1272 1.390 . S
C1268 C1262 1.465 1_545 S
C1268 C1267 1.396 . S
C1268 C1269 1.399 1_545 S
C1269 H1255 0.929 . S
C1269 C1268 1.399 1_565 S
C1269 C1270 1.385 1_565 S
C1270 H1256 0.910 1_545 S
C1270 C1269 1.385 1_545 S
C1270 C1271 1.389 . S
C1271 C1270 1.389 . S
C1271 C1272 1.387 . S
C1272 H1257 0.930 . S
C1272 C1267 1.390 . S
C1272 C1271 1.387 . S
H1273 C1285 0.930 . S
H1274 C1287 0.930 . S
H1275 C1288 0.930 . S
H1276 C1292 0.959 . S
H1277 C1292 0.959 . S
H1278 C1292 0.961 . S
H1279 C1293 0.960 . S
H1280 C1293 0.961 . S
H1281 C1293 0.959 . S
H1282 C1296 0.929 . S
H1283 C1297 0.931 . S
H1284 C1299 0.930 . S
C1285 H1273 0.930 . S
C1285 C1286 1.399 . S
C1285 C1290 1.399 . S
C1286 C1285 1.399 . S
C1286 C1287 1.376 . S
C1287 H1274 0.930 . S
C1287 C1286 1.376 . S
C1287 C1288 1.388 . S
C1288 H1275 0.930 . S
C1288 C1287 1.388 . S
C1288 C1289 1.390 . S
C1289 C1288 1.390 . S
C1289 C1290 1.394 . S
C1289 C1295 1.465 . S
C1290 C1285 1.399 . S
C1290 C1289 1.394 . S
C1290 C1291 1.516 . S
C1291 C1290 1.516 . S
C1291 C1292 1.502 . S
C1291 C1293 1.561 . S
C1291 C1294 1.526 . S
C1292 H1276 0.959 . S
C1292 H1277 0.959 . S
C1292 H1278 0.961 . S
C1292 C1291 1.502 . S
C1293 H1279 0.960 . S
C1293 H1280 0.961 . S
C1293 H1281 0.959 . S
C1293 C1291 1.561 . S
C1294 C1291 1.526 . S
C1294 C1295 1.396 . S
C1294 C1299 1.390 . S
C1295 C1289 1.465 . S
C1295 C1294 1.396 . S
C1295 C1296 1.399 . S
C1296 H1282 0.929 . S
C1296 C1295 1.399 . S
C1296 C1297 1.385 . S
C1297 H1283 0.931 . S
C1297 C1296 1.385 . S
C1297 C1298 1.389 . S
C1298 C1297 1.389 . S
C1298 C1299 1.387 . S
C1299 H1284 0.930 . S
C1299 C1294 1.390 . S
C1299 C1298 1.387 . S
H1300 C1312 0.930 . S
H1301 C1314 0.930 . S
H1302 C1315 0.930 . S
H1303 C1319 0.959 1_455 S
H1304 C1319 0.959 . S
H1305 C1319 0.961 . S
H1306 C1320 0.960 . S
H1307 C1320 0.961 . S
H1308 C1320 0.959 . S
H1309 C1323 0.929 . S
H1310 C1324 0.931 1_565 S
H1311 C1326 0.930 . S
C1312 H1300 0.930 . S
C1312 C1313 1.421 . S
C1312 C1317 1.399 . S
C1313 C1312 1.421 . S
C1313 C1314 1.352 1_545 S
C1314 H1301 0.930 . S
C1314 C1313 1.352 1_565 S
C1314 C1315 1.388 . S
C1315 H1302 0.930 . S
C1315 C1314 1.388 . S
C1315 C1316 1.390 1_565 S
C1316 C1315 1.390 1_545 S
C1316 C1317 1.394 . S
C1316 C1322 1.465 . S
C1317 C1312 1.399 . S
C1317 C1316 1.394 . S
C1317 C1318 1.516 . S
C1318 C1317 1.516 . S
C1318 C1319 1.502 . S
C1318 C1320 1.561 . S
C1318 C1321 1.526 . S
C1319 H1303 0.959 1_655 S
C1319 H1304 0.959 . S
C1319 H1305 0.961 . S
C1319 C1318 1.502 . S
C1320 H1306 0.960 . S
C1320 H1307 0.961 . S
C1320 H1308 0.959 . S
C1320 C1318 1.561 . S
C1321 C1318 1.526 . S
C1321 C1322 1.396 . S
C1321 C1326 1.390 . S
C1322 C1316 1.465 . S
C1322 C1321 1.396 . S
C1322 C1323 1.399 1_545 S
C1323 H1309 0.929 . S
C1323 C1322 1.399 1_565 S
C1323 C1324 1.385 1_565 S
C1324 H1310 0.931 1_545 S
C1324 C1323 1.385 1_545 S
C1324 C1325 1.389 . S
C1325 C1324 1.389 . S
C1325 C1326 1.387 . S
C1326 H1311 0.930 . S
C1326 C1321 1.390 . S
C1326 C1325 1.387 . S
H1327 C1339 0.930 . S
H1328 C1341 0.930 . S
H1329 C1342 0.930 . S
H1330 C1346 0.959 . S
H1331 C1346 0.959 . S
H1332 C1346 0.961 . S
H1333 C1347 0.960 . S
H1334 C1347 0.961 . S
H1335 C1347 0.959 . S
H1336 C1350 0.929 . S
H1337 C1351 0.931 . S
H1338 C1353 0.930 . S
C1339 H1327 0.930 . S
C1339 C1340 1.399 . S
C1339 C1344 1.399 . S
C1340 C1339 1.399 . S
C1340 C1341 1.376 . S
C1341 H1328 0.930 . S
C1341 C1340 1.376 . S
C1341 C1342 1.388 . S
C1342 H1329 0.930 . S
C1342 C1341 1.388 . S
C1342 C1343 1.390 . S
C1343 C1342 1.390 . S
C1343 C1344 1.394 . S
C1343 C1349 1.465 . S
C1344 C1339 1.399 . S
C1344 C1343 1.394 . S
C1344 C1345 1.516 . S
C1345 C1344 1.516 . S
C1345 C1346 1.502 . S
C1345 C1347 1.561 . S
C1345 C1348 1.526 . S
C1346 H1330 0.959 . S
C1346 H1331 0.959 . S
C1346 H1332 0.961 . S
C1346 C1345 1.502 . S
C1347 H1333 0.960 . S
C1347 H1334 0.961 . S
C1347 H1335 0.959 . S
C1347 C1345 1.561 . S
C1348 C1345 1.526 . S
C1348 C1349 1.396 . S
C1348 C1353 1.390 . S
C1349 C1343 1.465 . S
C1349 C1348 1.396 . S
C1349 C1350 1.399 . S
C1350 H1336 0.929 . S
C1350 C1349 1.399 . S
C1350 C1351 1.385 . S
C1351 H1337 0.931 . S
C1351 C1350 1.385 . S
C1351 C1352 1.389 . S
C1352 C1351 1.389 . S
C1352 C1353 1.387 . S
C1353 H1338 0.930 . S
C1353 C1348 1.390 . S
C1353 C1352 1.387 . S
H1354 C1366 0.930 . S
H1355 C1368 0.930 . S
H1356 C1369 0.930 . S
H1357 C1373 0.959 . S
H1358 C1373 0.959 . S
H1359 C1373 0.961 . S
H1360 C1374 0.960 . S
H1361 C1374 0.961 . S
H1362 C1374 0.959 . S
H1363 C1377 0.929 . S
H1364 C1378 0.931 . S
H1365 C1380 0.930 . S
C1366 H1354 0.930 . S
C1366 C1367 1.399 1_545 S
C1366 C1371 1.399 . S
C1367 C1366 1.399 1_565 S
C1367 C1368 1.376 . S
C1368 H1355 0.930 . S
C1368 C1367 1.376 . S
C1368 C1369 1.388 . S
C1369 H1356 0.930 . S
C1369 C1368 1.388 . S
C1369 C1370 1.390 1_565 S
C1370 C1369 1.390 1_545 S
C1370 C1371 1.394 . S
C1370 C1376 1.465 . S
C1371 C1366 1.399 . S
C1371 C1370 1.394 . S
C1371 C1372 1.516 . S
C1372 C1371 1.516 . S
C1372 C1373 1.502 . S
C1372 C1374 1.561 . S
C1372 C1375 1.526 . S
C1373 H1357 0.959 . S
C1373 H1358 0.959 . S
C1373 H1359 0.961 . S
C1373 C1372 1.502 . S
C1374 H1360 0.960 . S
C1374 H1361 0.961 . S
C1374 H1362 0.959 . S
C1374 C1372 1.561 . S
C1375 C1372 1.526 . S
C1375 C1376 1.396 . S
C1375 C1380 1.390 . S
C1376 C1370 1.465 . S
C1376 C1375 1.396 . S
C1376 C1377 1.399 . S
C1377 H1363 0.929 . S
C1377 C1376 1.399 . S
C1377 C1378 1.385 . S
C1378 H1364 0.931 . S
C1378 C1377 1.385 . S
C1378 C1379 1.389 . S
C1379 C1378 1.389 . S
C1379 C1380 1.387 . S
C1380 H1365 0.930 . S
C1380 C1375 1.390 . S
C1380 C1379 1.387 . S
H1381 C1393 0.930 . S
H1382 C1395 0.930 . S
H1383 C1396 0.930 . S
H1384 C1400 0.959 . S
H1385 C1400 0.959 . S
H1386 C1400 0.961 . S
H1387 C1401 0.960 . S
H1388 C1401 0.961 . S
H1389 C1401 0.959 . S
H1390 C1404 0.929 . S
H1391 C1405 0.931 . S
H1392 C1407 0.930 . S
C1393 H1381 0.930 . S
C1393 C1394 1.399 . S
C1393 C1398 1.399 . S
C1394 C1393 1.399 . S
C1394 C1395 1.376 . S
C1395 H1382 0.930 . S
C1395 C1394 1.376 . S
C1395 C1396 1.388 . S
C1396 H1383 0.930 . S
C1396 C1395 1.388 . S
C1396 C1397 1.390 . S
C1397 C1396 1.390 . S
C1397 C1398 1.394 . S
C1397 C1403 1.465 . S
C1398 C1393 1.399 . S
C1398 C1397 1.394 . S
C1398 C1399 1.516 . S
C1399 C1398 1.516 . S
C1399 C1400 1.502 . S
C1399 C1401 1.561 . S
C1399 C1402 1.526 . S
C1400 H1384 0.959 . S
C1400 H1385 0.959 . S
C1400 H1386 0.961 . S
C1400 C1399 1.502 . S
C1401 H1387 0.960 . S
C1401 H1388 0.961 . S
C1401 H1389 0.959 . S
C1401 C1399 1.561 . S
C1402 C1399 1.526 . S
C1402 C1403 1.396 . S
C1402 C1407 1.390 . S
C1403 C1397 1.465 . S
C1403 C1402 1.396 . S
C1403 C1404 1.399 . S
C1404 H1390 0.929 . S
C1404 C1403 1.399 . S
C1404 C1405 1.385 . S
C1405 H1391 0.931 . S
C1405 C1404 1.385 . S
C1405 C1406 1.389 . S
C1406 C1405 1.389 . S
C1406 C1407 1.387 . S
C1407 H1392 0.930 . S
C1407 C1402 1.390 . S
C1407 C1406 1.387 . S
H1408 C1420 0.930 . S
H1409 C1422 0.930 . S
H1410 C1423 0.930 . S
H1411 C1427 0.959 . S
H1412 C1427 0.959 1_545 S
H1413 C1427 0.961 . S
H1414 C1428 0.960 . S
H1415 C1428 0.961 . S
H1416 C1428 0.959 . S
H1417 C1431 0.929 . S
H1418 C1432 0.931 . S
H1419 C1434 0.930 1_545 S
C1420 H1408 0.930 . S
C1420 C1421 1.399 . S
C1420 C1425 1.399 . S
C1421 C1420 1.399 . S
C1421 C1422 1.376 . S
C1422 H1409 0.930 . S
C1422 C1421 1.376 . S
C1422 C1423 1.388 . S
C1423 H1410 0.930 . S
C1423 C1422 1.388 . S
C1423 C1424 1.390 . S
C1424 C1423 1.390 . S
C1424 C1425 1.394 . S
C1424 C1430 1.465 . S
C1425 C1420 1.399 . S
C1425 C1424 1.394 . S
C1425 C1426 1.516 . S
C1426 C1425 1.516 . S
C1426 C1427 1.502 . S
C1426 C1428 1.561 . S
C1426 C1429 1.526 . S
C1427 H1411 0.959 . S
C1427 H1412 0.959 1_565 S
C1427 H1413 0.961 . S
C1427 C1426 1.502 . S
C1428 H1414 0.960 . S
C1428 H1415 0.961 . S
C1428 H1416 0.959 . S
C1428 C1426 1.561 . S
C1429 C1426 1.526 . S
C1429 C1430 1.396 . S
C1429 C1434 1.390 . S
C1430 C1424 1.465 . S
C1430 C1429 1.396 . S
C1430 C1431 1.399 . S
C1431 H1417 0.929 . S
C1431 C1430 1.399 . S
C1431 C1432 1.385 . S
C1432 H1418 0.931 . S
C1432 C1431 1.385 . S
C1432 C1433 1.389 . S
C1433 C1432 1.389 . S
C1433 C1434 1.387 . S
C1434 H1419 0.930 1_565 S
C1434 C1429 1.390 . S
C1434 C1433 1.387 . S
H1435 C1447 0.930 . S
H1436 C1449 0.930 . S
H1437 C1450 0.930 . S
H1438 C1454 0.959 . S
H1439 C1454 0.959 . S
H1440 C1454 0.961 . S
H1441 C1455 0.960 . S
H1442 C1455 0.961 . S
H1443 C1455 0.959 . S
H1444 C1458 0.929 . S
H1445 C1459 0.931 . S
H1446 C1461 0.930 . S
C1447 H1435 0.930 . S
C1447 C1448 1.399 . S
C1447 C1452 1.399 . S
C1448 C1447 1.399 . S
C1448 C1449 1.376 1_554 S
C1449 H1436 0.930 . S
C1449 C1448 1.376 1_556 S
C1449 C1450 1.388 . S
C1450 H1437 0.930 . S
C1450 C1449 1.388 . S
C1450 C1451 1.347 1_556 S
C1451 C1450 1.347 1_554 S
C1451 C1452 1.435 . S
C1451 C1457 1.477 . S
C1452 C1447 1.399 . S
C1452 C1451 1.435 . S
C1452 C1453 1.516 . S
C1453 C1452 1.516 . S
C1453 C1454 1.502 . S
C1453 C1455 1.561 . S
C1453 C1456 1.526 . S
C1454 H1438 0.959 . S
C1454 H1439 0.959 . S
C1454 H1440 0.961 . S
C1454 C1453 1.502 . S
C1455 H1441 0.960 . S
C1455 H1442 0.961 . S
C1455 H1443 0.959 . S
C1455 C1453 1.561 . S
C1456 C1453 1.526 . S
C1456 C1457 1.396 . S
C1456 C1461 1.390 . S
C1457 C1451 1.477 . S
C1457 C1456 1.396 . S
C1457 C1458 1.399 1_554 S
C1458 H1444 0.929 . S
C1458 C1457 1.399 1_556 S
C1458 C1459 1.385 . S
C1459 H1445 0.931 . S
C1459 C1458 1.385 . S
C1459 C1460 1.389 1_556 S
C1460 C1459 1.389 1_554 S
C1460 C1461 1.387 . S
C1461 H1446 0.930 . S
C1461 C1456 1.390 . S
C1461 C1460 1.387 . S
H1462 C1474 0.930 . S
H1463 C1476 0.930 . S
H1464 C1477 0.930 . S
H1465 C1481 0.959 . S
H1466 C1481 0.959 . S
H1467 C1481 0.961 . S
H1468 C1482 0.960 . S
H1469 C1482 0.961 . S
H1470 C1482 0.959 . S
H1471 C1485 0.929 . S
H1472 C1486 0.931 . S
H1473 C1488 0.930 . S
C1474 H1462 0.930 . S
C1474 C1475 1.399 . S
C1474 C1479 1.399 . S
C1475 C1474 1.399 . S
C1475 C1476 1.376 . S
C1476 H1463 0.930 . S
C1476 C1475 1.376 . S
C1476 C1477 1.388 . S
C1477 H1464 0.930 . S
C1477 C1476 1.388 . S
C1477 C1478 1.390 . S
C1478 C1477 1.390 . S
C1478 C1479 1.394 . S
C1478 C1484 1.465 . S
C1479 C1474 1.399 . S
C1479 C1478 1.394 . S
C1479 C1480 1.516 . S
C1480 C1479 1.516 . S
C1480 C1481 1.502 . S
C1480 C1482 1.561 . S
C1480 C1483 1.526 . S
C1481 H1465 0.959 . S
C1481 H1466 0.959 . S
C1481 H1467 0.961 . S
C1481 C1480 1.502 . S
C1482 H1468 0.960 . S
C1482 H1469 0.961 . S
C1482 H1470 0.959 . S
C1482 C1480 1.561 . S
C1483 C1480 1.526 . S
C1483 C1484 1.396 . S
C1483 C1488 1.390 . S
C1484 C1478 1.465 . S
C1484 C1483 1.396 . S
C1484 C1485 1.399 . S
C1485 H1471 0.929 . S
C1485 C1484 1.399 . S
C1485 C1486 1.385 . S
C1486 H1472 0.931 . S
C1486 C1485 1.385 . S
C1486 C1487 1.389 . S
C1487 C1486 1.389 . S
C1487 C1488 1.387 . S
C1488 H1473 0.930 . S
C1488 C1483 1.390 . S
C1488 C1487 1.387 . S
H1489 C1501 0.930 . S
H1490 C1503 0.930 . S
H1491 C1504 0.930 . S
H1492 C1508 0.959 . S
H1493 C1508 0.959 . S
H1494 C1508 0.961 . S
H1495 C1509 0.960 . S
H1496 C1509 0.961 . S
H1497 C1509 0.959 . S
H1498 C1512 0.929 . S
H1499 C1513 0.931 . S
H1500 C1515 0.930 . S
C1501 H1489 0.930 . S
C1501 C1502 1.399 . S
C1501 C1506 1.399 . S
C1502 C1501 1.399 . S
C1502 C1503 1.376 . S
C1503 H1490 0.930 . S
C1503 C1502 1.376 . S
C1503 C1504 1.388 . S
C1504 H1491 0.930 . S
C1504 C1503 1.388 . S
C1504 C1505 1.390 . S
C1505 C1504 1.390 . S
C1505 C1506 1.394 . S
C1505 C1511 1.465 . S
C1506 C1501 1.399 . S
C1506 C1505 1.394 . S
C1506 C1507 1.516 . S
C1507 C1506 1.516 . S
C1507 C1508 1.502 . S
C1507 C1509 1.561 . S
C1507 C1510 1.526 . S
C1508 H1492 0.959 . S
C1508 H1493 0.959 . S
C1508 H1494 0.961 . S
C1508 C1507 1.502 . S
C1509 H1495 0.960 . S
C1509 H1496 0.961 . S
C1509 H1497 0.959 . S
C1509 C1507 1.561 . S
C1510 C1507 1.526 . S
C1510 C1511 1.396 . S
C1510 C1515 1.390 . S
C1511 C1505 1.465 . S
C1511 C1510 1.396 . S
C1511 C1512 1.399 . S
C1512 H1498 0.929 . S
C1512 C1511 1.399 . S
C1512 C1513 1.385 . S
C1513 H1499 0.931 . S
C1513 C1512 1.385 . S
C1513 C1514 1.389 . S
C1514 C1513 1.389 . S
C1514 C1515 1.387 . S
C1515 H1500 0.930 . S
C1515 C1510 1.390 . S
C1515 C1514 1.387 . S
H1516 C1528 0.930 . S
H1517 C1530 0.930 . S
H1518 C1531 0.930 . S
H1519 C1535 0.959 . S
H1520 C1535 0.959 . S
H1521 C1535 0.961 . S
H1522 C1536 0.960 . S
H1523 C1536 0.961 . S
H1524 C1536 0.959 . S
H1525 C1539 0.929 . S
H1526 C1540 0.931 . S
H1527 C1542 0.930 . S
C1528 H1516 0.930 . S
C1528 C1529 1.399 . S
C1528 C1533 1.399 . S
C1529 C1528 1.399 . S
C1529 C1530 1.376 . S
C1530 H1517 0.930 . S
C1530 C1529 1.376 . S
C1530 C1531 1.388 . S
C1531 H1518 0.930 . S
C1531 C1530 1.388 . S
C1531 C1532 1.390 . S
C1532 C1531 1.390 . S
C1532 C1533 1.394 . S
C1532 C1538 1.465 . S
C1533 C1528 1.399 . S
C1533 C1532 1.394 . S
C1533 C1534 1.516 . S
C1534 C1533 1.516 . S
C1534 C1535 1.502 . S
C1534 C1536 1.561 . S
C1534 C1537 1.526 . S
C1535 H1519 0.959 . S
C1535 H1520 0.959 . S
C1535 H1521 0.961 . S
C1535 C1534 1.502 . S
C1536 H1522 0.960 . S
C1536 H1523 0.961 . S
C1536 H1524 0.959 . S
C1536 C1534 1.561 . S
C1537 C1534 1.526 . S
C1537 C1538 1.396 . S
C1537 C1542 1.390 . S
C1538 C1532 1.465 . S
C1538 C1537 1.396 . S
C1538 C1539 1.399 . S
C1539 H1525 0.929 . S
C1539 C1538 1.399 . S
C1539 C1540 1.385 . S
C1540 H1526 0.931 . S
C1540 C1539 1.385 . S
C1540 C1541 1.389 . S
C1541 C1540 1.389 . S
C1541 C1542 1.387 . S
C1542 H1527 0.930 . S
C1542 C1537 1.390 . S
C1542 C1541 1.387 . S
H1543 C1555 0.930 . S
H1544 C1557 0.930 . S
H1545 C1558 0.930 . S
H1546 C1562 0.959 . S
H1547 C1562 0.959 . S
H1548 C1562 0.961 . S
H1549 C1563 0.960 . S
H1550 C1563 0.961 . S
H1551 C1563 0.959 . S
H1552 C1566 0.929 . S
H1553 C1567 0.931 . S
H1554 C1569 0.930 . S
C1555 H1543 0.930 . S
C1555 C1556 1.399 . S
C1555 C1560 1.399 . S
C1556 C1555 1.399 . S
C1556 C1557 1.376 . S
C1557 H1544 0.930 . S
C1557 C1556 1.376 . S
C1557 C1558 1.388 . S
C1558 H1545 0.930 . S
C1558 C1557 1.388 . S
C1558 C1559 1.390 . S
C1559 C1558 1.390 . S
C1559 C1560 1.394 . S
C1559 C1565 1.465 . S
C1560 C1555 1.399 . S
C1560 C1559 1.394 . S
C1560 C1561 1.516 . S
C1561 C1560 1.516 . S
C1561 C1562 1.502 . S
C1561 C1563 1.561 . S
C1561 C1564 1.526 . S
C1562 H1546 0.959 . S
C1562 H1547 0.959 . S
C1562 H1548 0.961 . S
C1562 C1561 1.502 . S
C1563 H1549 0.960 . S
C1563 H1550 0.961 . S
C1563 H1551 0.959 . S
C1563 C1561 1.561 . S
C1564 C1561 1.526 . S
C1564 C1565 1.396 . S
C1564 C1569 1.390 . S
C1565 C1559 1.465 . S
C1565 C1564 1.396 . S
C1565 C1566 1.399 . S
C1566 H1552 0.929 . S
C1566 C1565 1.399 . S
C1566 C1567 1.385 . S
C1567 H1553 0.931 . S
C1567 C1566 1.385 . S
C1567 C1568 1.389 . S
C1568 C1567 1.389 . S
C1568 C1569 1.387 . S
C1569 H1554 0.930 . S
C1569 C1564 1.390 . S
C1569 C1568 1.387 . S
H1570 C1582 0.930 . S
H1571 C1584 0.930 . S
H1572 C1585 0.930 . S
H1573 C1589 0.959 . S
H1574 C1589 0.959 . S
H1575 C1589 0.961 . S
H1576 C1590 0.960 . S
H1577 C1590 0.961 . S
H1578 C1590 0.959 . S
H1579 C1593 0.929 . S
H1580 C1594 0.931 . S
H1581 C1596 0.930 . S
C1582 H1570 0.930 . S
C1582 C1583 1.399 . S
C1582 C1587 1.399 . S
C1583 C1582 1.399 . S
C1583 C1584 1.376 . S
C1584 H1571 0.930 . S
C1584 C1583 1.376 . S
C1584 C1585 1.388 . S
C1585 H1572 0.930 . S
C1585 C1584 1.388 . S
C1585 C1586 1.390 . S
C1586 C1585 1.390 . S
C1586 C1587 1.394 . S
C1586 C1592 1.465 . S
C1587 C1582 1.399 . S
C1587 C1586 1.394 . S
C1587 C1588 1.516 . S
C1588 C1587 1.516 . S
C1588 C1589 1.502 . S
C1588 C1590 1.561 . S
C1588 C1591 1.526 . S
C1589 H1573 0.959 . S
C1589 H1574 0.959 . S
C1589 H1575 0.961 . S
C1589 C1588 1.502 . S
C1590 H1576 0.960 . S
C1590 H1577 0.961 . S
C1590 H1578 0.959 . S
C1590 C1588 1.561 . S
C1591 C1588 1.526 . S
C1591 C1592 1.396 . S
C1591 C1596 1.390 . S
C1592 C1586 1.465 . S
C1592 C1591 1.396 . S
C1592 C1593 1.399 . S
C1593 H1579 0.929 . S
C1593 C1592 1.399 . S
C1593 C1594 1.385 . S
C1594 H1580 0.931 . S
C1594 C1593 1.385 . S
C1594 C1595 1.389 . S
C1595 C1594 1.389 . S
C1595 C1596 1.387 . S
C1596 H1581 0.930 . S
C1596 C1591 1.390 . S
C1596 C1595 1.387 . S
H1597 C1609 0.930 . S
H1598 C1611 0.930 . S
H1599 C1612 0.930 . S
H1600 C1616 0.959 . S
H1601 C1616 0.959 . S
H1602 C1616 0.961 . S
H1603 C1617 0.960 . S
H1604 C1617 0.961 . S
H1605 C1617 0.959 . S
H1606 C1620 0.929 . S
H1607 C1621 0.931 . S
H1608 C1623 0.930 . S
C1609 H1597 0.930 . S
C1609 C1610 1.399 . S
C1609 C1614 1.399 . S
C1610 C1609 1.399 . S
C1610 C1611 1.376 . S
C1611 H1598 0.930 . S
C1611 C1610 1.376 . S
C1611 C1612 1.388 . S
C1612 H1599 0.930 . S
C1612 C1611 1.388 . S
C1612 C1613 1.390 . S
C1613 C1612 1.390 . S
C1613 C1614 1.394 . S
C1613 C1619 1.465 . S
C1614 C1609 1.399 . S
C1614 C1613 1.394 . S
C1614 C1615 1.516 . S
C1615 C1614 1.516 . S
C1615 C1616 1.502 . S
C1615 C1617 1.561 . S
C1615 C1618 1.526 . S
C1616 H1600 0.959 . S
C1616 H1601 0.959 . S
C1616 H1602 0.961 . S
C1616 C1615 1.502 . S
C1617 H1603 0.960 . S
C1617 H1604 0.961 . S
C1617 H1605 0.959 . S
C1617 C1615 1.561 . S
C1618 C1615 1.526 . S
C1618 C1619 1.396 . S
C1618 C1623 1.390 . S
C1619 C1613 1.465 . S
C1619 C1618 1.396 . S
C1619 C1620 1.399 . S
C1620 H1606 0.929 . S
C1620 C1619 1.399 . S
C1620 C1621 1.385 . S
C1621 H1607 0.931 . S
C1621 C1620 1.385 . S
C1621 C1622 1.389 . S
C1622 C1621 1.389 . S
C1622 C1623 1.387 . S
C1623 H1608 0.930 . S
C1623 C1618 1.390 . S
C1623 C1622 1.387 . S
H1624 C1636 0.930 . S
H1625 C1638 0.930 . S
H1626 C1639 0.930 . S
H1627 C1643 0.959 . S
H1628 C1643 0.959 . S
H1629 C1643 0.961 . S
H1630 C1644 0.960 . S
H1631 C1644 0.961 . S
H1632 C1644 0.959 . S
H1633 C1647 0.929 . S
H1634 C1648 0.931 . S
H1635 C1650 0.930 . S
C1636 H1624 0.930 . S
C1636 C1637 1.399 . S
C1636 C1641 1.399 . S
C1637 C1636 1.399 . S
C1637 C1638 1.376 . S
C1638 H1625 0.930 . S
C1638 C1637 1.376 . S
C1638 C1639 1.388 . S
C1639 H1626 0.930 . S
C1639 C1638 1.388 . S
C1639 C1640 1.390 . S
C1640 C1639 1.390 . S
C1640 C1641 1.394 . S
C1640 C1646 1.465 . S
C1641 C1636 1.399 . S
C1641 C1640 1.394 . S
C1641 C1642 1.516 . S
C1642 C1641 1.516 . S
C1642 C1643 1.502 . S
C1642 C1644 1.561 . S
C1642 C1645 1.526 . S
C1643 H1627 0.959 . S
C1643 H1628 0.959 . S
C1643 H1629 0.961 . S
C1643 C1642 1.502 . S
C1644 H1630 0.960 . S
C1644 H1631 0.961 . S
C1644 H1632 0.959 . S
C1644 C1642 1.561 . S
C1645 C1642 1.526 . S
C1645 C1646 1.396 . S
C1645 C1650 1.390 . S
C1646 C1640 1.465 . S
C1646 C1645 1.396 . S
C1646 C1647 1.399 . S
C1647 H1633 0.929 . S
C1647 C1646 1.399 . S
C1647 C1648 1.385 . S
C1648 H1634 0.931 . S
C1648 C1647 1.385 . S
C1648 C1649 1.389 . S
C1649 C1648 1.389 . S
C1649 C1650 1.387 . S
C1650 H1635 0.930 . S
C1650 C1645 1.390 . S
C1650 C1649 1.387 . S
H1651 C1663 0.930 . S
H1652 C1665 0.930 . S
H1653 C1666 0.930 . S
H1654 C1670 0.959 . S
H1655 C1670 0.959 . S
H1656 C1670 0.961 . S
H1657 C1671 0.960 . S
H1658 C1671 0.961 . S
H1659 C1671 0.959 . S
H1660 C1674 0.929 . S
H1661 C1675 0.931 . S
H1662 C1677 0.930 . S
C1663 H1651 0.930 . S
C1663 C1664 1.399 . S
C1663 C1668 1.399 . S
C1664 C1663 1.399 . S
C1664 C1665 1.376 . S
C1665 H1652 0.930 . S
C1665 C1664 1.376 . S
C1665 C1666 1.388 . S
C1666 H1653 0.930 . S
C1666 C1665 1.388 . S
C1666 C1667 1.390 . S
C1667 C1666 1.390 . S
C1667 C1668 1.394 . S
C1667 C1673 1.465 . S
C1668 C1663 1.399 . S
C1668 C1667 1.394 . S
C1668 C1669 1.516 . S
C1669 C1668 1.516 . S
C1669 C1670 1.502 . S
C1669 C1671 1.561 . S
C1669 C1672 1.526 . S
C1670 H1654 0.959 . S
C1670 H1655 0.959 . S
C1670 H1656 0.961 . S
C1670 C1669 1.502 . S
C1671 H1657 0.960 . S
C1671 H1658 0.961 . S
C1671 H1659 0.959 . S
C1671 C1669 1.561 . S
C1672 C1669 1.526 . S
C1672 C1673 1.396 . S
C1672 C1677 1.390 . S
C1673 C1667 1.465 . S
C1673 C1672 1.396 . S
C1673 C1674 1.399 . S
C1674 H1660 0.929 . S
C1674 C1673 1.399 . S
C1674 C1675 1.385 . S
C1675 H1661 0.931 . S
C1675 C1674 1.385 . S
C1675 C1676 1.389 . S
C1676 C1675 1.389 . S
C1676 C1677 1.387 . S
C1677 H1662 0.930 . S
C1677 C1672 1.390 . S
C1677 C1676 1.387 . S
H1678 C1690 0.930 . S
H1679 C1692 0.930 . S
H1680 C1693 0.930 . S
H1681 C1697 0.959 . S
H1682 C1697 0.959 . S
H1683 C1697 0.961 . S
H1684 C1698 0.960 . S
H1685 C1698 0.961 . S
H1686 C1698 0.959 . S
H1687 C1701 0.929 . S
H1688 C1702 0.931 . S
H1689 C1704 0.930 . S
C1690 H1678 0.930 . S
C1690 C1691 1.399 . S
C1690 C1695 1.399 . S
C1691 C1690 1.399 . S
C1691 C1692 1.376 . S
C1692 H1679 0.930 . S
C1692 C1691 1.376 . S
C1692 C1693 1.388 . S
C1693 H1680 0.930 . S
C1693 C1692 1.388 . S
C1693 C1694 1.390 . S
C1694 C1693 1.390 . S
C1694 C1695 1.394 . S
C1694 C1700 1.465 . S
C1695 C1690 1.399 . S
C1695 C1694 1.394 . S
C1695 C1696 1.516 . S
C1696 C1695 1.516 . S
C1696 C1697 1.502 . S
C1696 C1698 1.561 . S
C1696 C1699 1.526 . S
C1697 H1681 0.959 . S
C1697 H1682 0.959 . S
C1697 H1683 0.961 . S
C1697 C1696 1.502 . S
C1698 H1684 0.960 . S
C1698 H1685 0.961 . S
C1698 H1686 0.959 . S
C1698 C1696 1.561 . S
C1699 C1696 1.526 . S
C1699 C1700 1.396 . S
C1699 C1704 1.390 . S
C1700 C1694 1.465 . S
C1700 C1699 1.396 . S
C1700 C1701 1.399 . S
C1701 H1687 0.929 . S
C1701 C1700 1.399 . S
C1701 C1702 1.385 . S
C1702 H1688 0.931 . S
C1702 C1701 1.385 . S
C1702 C1703 1.389 . S
C1703 C1702 1.389 . S
C1703 C1704 1.387 . S
C1704 H1689 0.930 . S
C1704 C1699 1.390 . S
C1704 C1703 1.387 . S
H1705 C1717 0.930 . S
H1706 C1719 0.930 . S
H1707 C1720 0.930 . S
H1708 C1724 0.959 . S
H1709 C1724 0.959 . S
H1710 C1724 0.961 . S
H1711 C1725 0.960 . S
H1712 C1725 0.961 . S
H1713 C1725 0.959 . S
H1714 C1728 0.929 . S
H1715 C1729 0.931 . S
H1716 C1731 0.930 . S
C1717 H1705 0.930 . S
C1717 C1718 1.399 . S
C1717 C1722 1.399 . S
C1718 C1717 1.399 . S
C1718 C1719 1.376 . S
C1719 H1706 0.930 . S
C1719 C1718 1.376 . S
C1719 C1720 1.388 . S
C1720 H1707 0.930 . S
C1720 C1719 1.388 . S
C1720 C1721 1.390 . S
C1721 C1720 1.390 . S
C1721 C1722 1.394 . S
C1721 C1727 1.465 . S
C1722 C1717 1.399 . S
C1722 C1721 1.394 . S
C1722 C1723 1.516 . S
C1723 C1722 1.516 . S
C1723 C1724 1.502 . S
C1723 C1725 1.561 . S
C1723 C1726 1.526 . S
C1724 H1708 0.959 . S
C1724 H1709 0.959 . S
C1724 H1710 0.961 . S
C1724 C1723 1.502 . S
C1725 H1711 0.960 . S
C1725 H1712 0.961 . S
C1725 H1713 0.959 . S
C1725 C1723 1.561 . S
C1726 C1723 1.526 . S
C1726 C1727 1.396 . S
C1726 C1731 1.390 . S
C1727 C1721 1.465 . S
C1727 C1726 1.396 . S
C1727 C1728 1.399 . S
C1728 H1714 0.929 . S
C1728 C1727 1.399 . S
C1728 C1729 1.385 . S
C1729 H1715 0.931 . S
C1729 C1728 1.385 . S
C1729 C1730 1.389 . S
C1730 C1729 1.389 . S
C1730 C1731 1.387 . S
C1731 H1716 0.930 . S
C1731 C1726 1.390 . S
C1731 C1730 1.387 . S
H1732 C1744 0.930 . S
H1733 C1746 0.930 . S
H1734 C1747 0.930 . S
H1735 C1751 0.959 . S
H1736 C1751 0.959 . S
H1737 C1751 0.961 . S
H1738 C1752 0.960 . S
H1739 C1752 0.961 . S
H1740 C1752 0.959 . S
H1741 C1755 0.929 . S
H1742 C1756 0.931 . S
H1743 C1758 0.930 . S
C1744 H1732 0.930 . S
C1744 C1745 1.399 . S
C1744 C1749 1.399 . S
C1745 C1744 1.399 . S
C1745 C1746 1.376 . S
C1746 H1733 0.930 . S
C1746 C1745 1.376 . S
C1746 C1747 1.388 . S
C1747 H1734 0.930 . S
C1747 C1746 1.388 . S
C1747 C1748 1.390 . S
C1748 C1747 1.390 . S
C1748 C1749 1.394 . S
C1748 C1754 1.465 . S
C1749 C1744 1.399 . S
C1749 C1748 1.394 . S
C1749 C1750 1.516 . S
C1750 C1749 1.516 . S
C1750 C1751 1.502 . S
C1750 C1752 1.561 . S
C1750 C1753 1.526 . S
C1751 H1735 0.959 . S
C1751 H1736 0.959 . S
C1751 H1737 0.961 . S
C1751 C1750 1.502 . S
C1752 H1738 0.960 . S
C1752 H1739 0.961 . S
C1752 H1740 0.959 . S
C1752 C1750 1.561 . S
C1753 C1750 1.526 . S
C1753 C1754 1.396 . S
C1753 C1758 1.390 . S
C1754 C1748 1.465 . S
C1754 C1753 1.396 . S
C1754 C1755 1.399 . S
C1755 H1741 0.929 . S
C1755 C1754 1.399 . S
C1755 C1756 1.385 . S
C1756 H1742 0.931 . S
C1756 C1755 1.385 . S
C1756 C1757 1.389 . S
C1757 C1756 1.389 . S
C1757 C1758 1.387 . S
C1758 H1743 0.930 . S
C1758 C1753 1.390 . S
C1758 C1757 1.387 . S
H1759 C1771 0.930 . S
H1760 C1773 0.930 . S
H1761 C1774 0.930 . S
H1762 C1778 0.959 . S
H1763 C1778 0.959 . S
H1764 C1778 0.961 . S
H1765 C1779 0.960 . S
H1766 C1779 0.961 . S
H1767 C1779 0.959 . S
H1768 C1782 0.929 . S
H1769 C1783 0.931 . S
H1770 C1785 0.930 . S
C1771 H1759 0.930 . S
C1771 C1772 1.399 . S
C1771 C1776 1.399 . S
C1772 C1771 1.399 . S
C1772 C1773 1.376 . S
C1773 H1760 0.930 . S
C1773 C1772 1.376 . S
C1773 C1774 1.388 . S
C1774 H1761 0.930 . S
C1774 C1773 1.388 . S
C1774 C1775 1.390 . S
C1775 C1774 1.390 . S
C1775 C1776 1.394 . S
C1775 C1781 1.465 . S
C1776 C1771 1.399 . S
C1776 C1775 1.394 . S
C1776 C1777 1.516 . S
C1777 C1776 1.516 . S
C1777 C1778 1.502 . S
C1777 C1779 1.561 . S
C1777 C1780 1.526 . S
C1778 H1762 0.959 . S
C1778 H1763 0.959 . S
C1778 H1764 0.961 . S
C1778 C1777 1.502 . S
C1779 H1765 0.960 . S
C1779 H1766 0.961 . S
C1779 H1767 0.959 . S
C1779 C1777 1.561 . S
C1780 C1777 1.526 . S
C1780 C1781 1.396 . S
C1780 C1785 1.390 . S
C1781 C1775 1.465 . S
C1781 C1780 1.396 . S
C1781 C1782 1.399 . S
C1782 H1768 0.929 . S
C1782 C1781 1.399 . S
C1782 C1783 1.385 . S
C1783 H1769 0.931 . S
C1783 C1782 1.385 . S
C1783 C1784 1.389 . S
C1784 C1783 1.389 . S
C1784 C1785 1.387 . S
C1785 H1770 0.930 . S
C1785 C1780 1.390 . S
C1785 C1784 1.387 . S
H1786 C1798 0.930 . S
H1787 C1800 0.930 . S
H1788 C1801 0.930 . S
H1789 C1805 0.959 . S
H1790 C1805 0.959 . S
H1791 C1805 0.961 . S
H1792 C1806 0.960 . S
H1793 C1806 0.961 . S
H1794 C1806 0.959 . S
H1795 C1809 0.957 . S
H1796 C1810 0.931 . S
H1797 C1812 0.930 . S
C1798 H1786 0.930 . S
C1798 C1799 1.399 . S
C1798 C1803 1.399 . S
C1799 C1798 1.399 . S
C1799 C1800 1.376 . S
C1800 H1787 0.930 . S
C1800 C1799 1.376 . S
C1800 C1801 1.388 . S
C1801 H1788 0.930 . S
C1801 C1800 1.388 . S
C1801 C1802 1.390 . S
C1802 C1801 1.390 . S
C1802 C1803 1.394 . S
C1802 C1808 1.465 . S
C1803 C1798 1.399 . S
C1803 C1802 1.394 . S
C1803 C1804 1.516 . S
C1804 C1803 1.516 . S
C1804 C1805 1.502 . S
C1804 C1806 1.561 . S
C1804 C1807 1.526 . S
C1805 H1789 0.959 . S
C1805 H1790 0.959 . S
C1805 H1791 0.961 . S
C1805 C1804 1.502 . S
C1806 H1792 0.960 . S
C1806 H1793 0.961 . S
C1806 H1794 0.959 . S
C1806 C1804 1.561 . S
C1807 C1804 1.526 . S
C1807 C1808 1.396 . S
C1807 C1812 1.390 . S
C1808 C1802 1.465 . S
C1808 C1807 1.396 . S
C1808 C1809 1.364 1_556 S
C1809 H1795 0.957 . S
C1809 C1808 1.364 1_554 S
C1809 C1810 1.392 . S
C1810 H1796 0.931 . S
C1810 C1809 1.392 . S
C1810 C1811 1.389 1_554 S
C1811 C1810 1.389 1_556 S
C1811 C1812 1.387 . S
C1812 H1797 0.930 . S
C1812 C1807 1.390 . S
C1812 C1811 1.387 . S
H1813 C1825 0.930 . S
H1814 C1827 0.930 . S
H1815 C1828 0.930 . S
H1816 C1832 0.959 . S
H1817 C1832 0.959 . S
H1818 C1832 0.961 . S
H1819 C1833 0.960 . S
H1820 C1833 0.961 . S
H1821 C1833 0.959 . S
H1822 C1836 0.929 . S
H1823 C1837 0.931 . S
H1824 C1839 0.930 . S
C1825 H1813 0.930 . S
C1825 C1826 1.399 . S
C1825 C1830 1.399 . S
C1826 C1825 1.399 . S
C1826 C1827 1.376 . S
C1827 H1814 0.930 . S
C1827 C1826 1.376 . S
C1827 C1828 1.388 . S
C1828 H1815 0.930 . S
C1828 C1827 1.388 . S
C1828 C1829 1.390 . S
C1829 C1828 1.390 . S
C1829 C1830 1.394 . S
C1829 C1835 1.465 . S
C1830 C1825 1.399 . S
C1830 C1829 1.394 . S
C1830 C1831 1.516 . S
C1831 C1830 1.516 . S
C1831 C1832 1.502 . S
C1831 C1833 1.561 . S
C1831 C1834 1.526 . S
C1832 H1816 0.959 . S
C1832 H1817 0.959 . S
C1832 H1818 0.961 . S
C1832 C1831 1.502 . S
C1833 H1819 0.960 . S
C1833 H1820 0.961 . S
C1833 H1821 0.959 . S
C1833 C1831 1.561 . S
C1834 C1831 1.526 . S
C1834 C1835 1.396 . S
C1834 C1839 1.390 . S
C1835 C1829 1.465 . S
C1835 C1834 1.396 . S
C1835 C1836 1.399 . S
C1836 H1822 0.929 . S
C1836 C1835 1.399 . S
C1836 C1837 1.385 . S
C1837 H1823 0.931 . S
C1837 C1836 1.385 . S
C1837 C1838 1.389 . S
C1838 C1837 1.389 . S
C1838 C1839 1.387 . S
C1839 H1824 0.930 . S
C1839 C1834 1.390 . S
C1839 C1838 1.387 . S
H1840 C1852 0.930 . S
H1841 C1854 0.930 . S
H1842 C1855 0.930 . S
H1843 C1859 0.959 . S
H1844 C1859 0.959 . S
H1845 C1859 0.961 . S
H1846 C1860 0.960 . S
H1847 C1860 0.961 1_565 S
H1848 C1860 0.959 . S
H1849 C1863 0.929 . S
H1850 C1864 0.931 . S
H1851 C1866 0.930 . S
C1852 H1840 0.930 . S
C1852 C1853 1.399 . S
C1852 C1857 1.399 . S
C1853 C1852 1.399 . S
C1853 C1854 1.376 . S
C1854 H1841 0.930 . S
C1854 C1853 1.376 . S
C1854 C1855 1.388 . S
C1855 H1842 0.930 . S
C1855 C1854 1.388 . S
C1855 C1856 1.390 . S
C1856 C1855 1.390 . S
C1856 C1857 1.394 . S
C1856 C1862 1.465 . S
C1857 C1852 1.399 . S
C1857 C1856 1.394 . S
C1857 C1858 1.516 . S
C1858 C1857 1.516 . S
C1858 C1859 1.502 . S
C1858 C1860 1.561 . S
C1858 C1861 1.526 . S
C1859 H1843 0.959 . S
C1859 H1844 0.959 . S
C1859 H1845 0.961 . S
C1859 C1858 1.502 . S
C1860 H1846 0.960 . S
C1860 H1847 0.961 1_545 S
C1860 H1848 0.959 . S
C1860 C1858 1.561 . S
C1861 C1858 1.526 . S
C1861 C1862 1.396 . S
C1861 C1866 1.390 . S
C1862 C1856 1.465 . S
C1862 C1861 1.396 . S
C1862 C1863 1.399 . S
C1863 H1849 0.929 . S
C1863 C1862 1.399 . S
C1863 C1864 1.385 . S
C1864 H1850 0.931 . S
C1864 C1863 1.385 . S
C1864 C1865 1.389 . S
C1865 C1864 1.389 . S
C1865 C1866 1.387 . S
C1866 H1851 0.930 . S
C1866 C1861 1.390 . S
C1866 C1865 1.387 . S
H1867 C1879 0.930 . S
H1868 C1881 0.930 . S
H1869 C1882 0.930 . S
H1870 C1886 0.959 . S
H1871 C1886 0.959 . S
H1872 C1886 0.961 . S
H1873 C1887 0.960 . S
H1874 C1887 0.961 . S
H1875 C1887 0.959 . S
H1876 C1890 0.929 . S
H1877 C1891 0.931 . S
H1878 C1893 0.930 . S
C1879 H1867 0.930 . S
C1879 C1880 1.399 . S
C1879 C1884 1.399 . S
C1880 C1879 1.399 . S
C1880 C1881 1.376 . S
C1881 H1868 0.930 . S
C1881 C1880 1.376 . S
C1881 C1882 1.388 . S
C1882 H1869 0.930 . S
C1882 C1881 1.388 . S
C1882 C1883 1.390 . S
C1883 C1882 1.390 . S
C1883 C1884 1.394 . S
C1883 C1889 1.465 . S
C1884 C1879 1.399 . S
C1884 C1883 1.394 . S
C1884 C1885 1.516 . S
C1885 C1884 1.516 . S
C1885 C1886 1.502 . S
C1885 C1887 1.561 . S
C1885 C1888 1.526 . S
C1886 H1870 0.959 . S
C1886 H1871 0.959 . S
C1886 H1872 0.961 . S
C1886 C1885 1.502 . S
C1887 H1873 0.960 . S
C1887 H1874 0.961 . S
C1887 H1875 0.959 . S
C1887 C1885 1.561 . S
C1888 C1885 1.526 . S
C1888 C1889 1.396 . S
C1888 C1893 1.390 . S
C1889 C1883 1.465 . S
C1889 C1888 1.396 . S
C1889 C1890 1.399 . S
C1890 H1876 0.929 . S
C1890 C1889 1.399 . S
C1890 C1891 1.385 . S
C1891 H1877 0.931 . S
C1891 C1890 1.385 . S
C1891 C1892 1.389 . S
C1892 C1891 1.389 . S
C1892 C1893 1.387 . S
C1893 H1878 0.930 . S
C1893 C1888 1.390 . S
C1893 C1892 1.387 . S
H1894 C1906 0.930 . S
H1895 C1908 0.930 . S
H1896 C1909 0.930 . S
H1897 C1913 0.959 . S
H1898 C1913 0.959 . S
H1899 C1913 0.961 . S
H1900 C1914 0.960 . S
H1901 C1914 0.961 . S
H1902 C1914 0.959 . S
H1903 C1917 0.929 . S
H1904 C1918 0.931 . S
H1905 C1920 0.930 . S
C1906 H1894 0.930 . S
C1906 C1907 1.399 . S
C1906 C1911 1.399 . S
C1907 C1906 1.399 . S
C1907 C1908 1.376 . S
C1908 H1895 0.930 . S
C1908 C1907 1.376 . S
C1908 C1909 1.388 . S
C1909 H1896 0.930 . S
C1909 C1908 1.388 . S
C1909 C1910 1.390 . S
C1910 C1909 1.390 . S
C1910 C1911 1.394 . S
C1910 C1916 1.465 . S
C1911 C1906 1.399 . S
C1911 C1910 1.394 . S
C1911 C1912 1.516 . S
C1912 C1911 1.516 . S
C1912 C1913 1.502 . S
C1912 C1914 1.561 . S
C1912 C1915 1.526 . S
C1913 H1897 0.959 . S
C1913 H1898 0.959 . S
C1913 H1899 0.961 . S
C1913 C1912 1.502 . S
C1914 H1900 0.960 . S
C1914 H1901 0.961 . S
C1914 H1902 0.959 . S
C1914 C1912 1.561 . S
C1915 C1912 1.526 . S
C1915 C1916 1.396 . S
C1915 C1920 1.390 . S
C1916 C1910 1.465 . S
C1916 C1915 1.396 . S
C1916 C1917 1.399 . S
C1917 H1903 0.929 . S
C1917 C1916 1.399 . S
C1917 C1918 1.385 . S
C1918 H1904 0.931 . S
C1918 C1917 1.385 . S
C1918 C1919 1.389 . S
C1919 C1918 1.389 . S
C1919 C1920 1.387 . S
C1920 H1905 0.930 . S
C1920 C1915 1.390 . S
C1920 C1919 1.387 . S
H1921 C1933 0.930 . S
H1922 C1935 0.930 . S
H1923 C1936 0.930 . S
H1924 C1940 0.959 . S
H1925 C1940 0.959 . S
H1926 C1940 0.961 . S
H1927 C1941 0.960 . S
H1928 C1941 0.961 . S
H1929 C1941 0.959 . S
H1930 C1944 0.929 . S
H1931 C1945 0.931 . S
H1932 C1947 0.930 . S
C1933 H1921 0.930 . S
C1933 C1934 1.399 . S
C1933 C1938 1.399 . S
C1934 C1933 1.399 . S
C1934 C1935 1.376 . S
C1935 H1922 0.930 . S
C1935 C1934 1.376 . S
C1935 C1936 1.388 . S
C1936 H1923 0.930 . S
C1936 C1935 1.388 . S
C1936 C1937 1.390 . S
C1937 C1936 1.390 . S
C1937 C1938 1.394 . S
C1937 C1943 1.465 . S
C1938 C1933 1.399 . S
C1938 C1937 1.394 . S
C1938 C1939 1.516 . S
C1939 C1938 1.516 . S
C1939 C1940 1.502 . S
C1939 C1941 1.561 . S
C1939 C1942 1.526 . S
C1940 H1924 0.959 . S
C1940 H1925 0.959 . S
C1940 H1926 0.961 . S
C1940 C1939 1.502 . S
C1941 H1927 0.960 . S
C1941 H1928 0.961 . S
C1941 H1929 0.959 . S
C1941 C1939 1.561 . S
C1942 C1939 1.526 . S
C1942 C1943 1.396 . S
C1942 C1947 1.390 . S
C1943 C1937 1.465 . S
C1943 C1942 1.396 . S
C1943 C1944 1.399 . S
C1944 H1930 0.929 . S
C1944 C1943 1.399 . S
C1944 C1945 1.385 . S
C1945 H1931 0.931 . S
C1945 C1944 1.385 . S
C1945 C1946 1.389 . S
C1946 C1945 1.389 . S
C1946 C1947 1.387 . S
C1947 H1932 0.930 . S
C1947 C1942 1.390 . S
C1947 C1946 1.387 . S
H1948 C1960 0.930 . S
H1949 C1962 0.930 . S
H1950 C1963 0.930 . S
H1951 C1967 0.959 . S
H1952 C1967 0.959 1_565 S
H1953 C1967 0.961 . S
H1954 C1968 0.960 . S
H1955 C1968 0.961 1_565 S
H1956 C1968 0.959 . S
H1957 C1971 0.929 . S
H1958 C1972 0.931 . S
H1959 C1974 0.930 . S
C1960 H1948 0.930 . S
C1960 C1961 1.399 . S
C1960 C1965 1.399 . S
C1961 C1960 1.399 . S
C1961 C1962 1.376 . S
C1962 H1949 0.930 . S
C1962 C1961 1.376 . S
C1962 C1963 1.388 . S
C1963 H1950 0.930 . S
C1963 C1962 1.388 . S
C1963 C1964 1.390 . S
C1964 C1963 1.390 . S
C1964 C1965 1.394 . S
C1964 C1970 1.465 . S
C1965 C1960 1.399 . S
C1965 C1964 1.394 . S
C1965 C1966 1.516 . S
C1966 C1965 1.516 . S
C1966 C1967 1.502 . S
C1966 C1968 1.561 . S
C1966 C1969 1.526 . S
C1967 H1951 0.959 . S
C1967 H1952 0.959 1_545 S
C1967 H1953 0.961 . S
C1967 C1966 1.502 . S
C1968 H1954 0.960 . S
C1968 H1955 0.961 1_545 S
C1968 H1956 0.959 . S
C1968 C1966 1.561 . S
C1969 C1966 1.526 . S
C1969 C1970 1.396 . S
C1969 C1974 1.390 . S
C1970 C1964 1.465 . S
C1970 C1969 1.396 . S
C1970 C1971 1.399 . S
C1971 H1957 0.929 . S
C1971 C1970 1.399 . S
C1971 C1972 1.385 . S
C1972 H1958 0.931 . S
C1972 C1971 1.385 . S
C1972 C1973 1.389 . S
C1973 C1972 1.389 . S
C1973 C1974 1.387 . S
C1974 H1959 0.930 . S
C1974 C1969 1.390 . S
C1974 C1973 1.387 . S
H1975 C1987 0.930 . S
H1976 C1989 0.930 . S
H1977 C1990 0.930 . S
H1978 C1994 0.959 . S
H1979 C1994 0.959 . S
H1980 C1994 0.961 . S
H1981 C1995 0.960 . S
H1982 C1995 0.961 . S
H1983 C1995 0.959 . S
H1984 C1998 0.929 . S
H1985 C1999 0.931 . S
H1986 C2001 0.930 . S
C1987 H1975 0.930 . S
C1987 C1988 1.399 . S
C1987 C1992 1.399 . S
C1988 C1987 1.399 . S
C1988 C1989 1.376 . S
C1989 H1976 0.930 . S
C1989 C1988 1.376 . S
C1989 C1990 1.388 . S
C1990 H1977 0.930 . S
C1990 C1989 1.388 . S
C1990 C1991 1.390 . S
C1991 C1990 1.390 . S
C1991 C1992 1.394 . S
C1991 C1997 1.465 . S
C1992 C1987 1.399 . S
C1992 C1991 1.394 . S
C1992 C1993 1.516 . S
C1993 C1992 1.516 . S
C1993 C1994 1.502 . S
C1993 C1995 1.561 . S
C1993 C1996 1.526 . S
C1994 H1978 0.959 . S
C1994 H1979 0.959 . S
C1994 H1980 0.961 . S
C1994 C1993 1.502 . S
C1995 H1981 0.960 . S
C1995 H1982 0.961 . S
C1995 H1983 0.959 . S
C1995 C1993 1.561 . S
C1996 C1993 1.526 . S
C1996 C1997 1.396 . S
C1996 C2001 1.390 . S
C1997 C1991 1.465 . S
C1997 C1996 1.396 . S
C1997 C1998 1.399 . S
C1998 H1984 0.929 . S
C1998 C1997 1.399 . S
C1998 C1999 1.385 . S
C1999 H1985 0.931 . S
C1999 C1998 1.385 . S
C1999 C2000 1.389 . S
C2000 C1999 1.389 . S
C2000 C2001 1.387 . S
C2001 H1986 0.930 . S
C2001 C1996 1.390 . S
C2001 C2000 1.387 . S
H2002 C2014 0.930 . S
H2003 C2016 0.930 . S
H2004 C2017 0.930 . S
H2005 C2021 0.959 . S
H2006 C2021 0.959 . S
H2007 C2021 0.961 . S
H2008 C2022 0.960 . S
H2009 C2022 0.961 . S
H2010 C2022 0.959 . S
H2011 C2025 0.929 1_565 S
H2012 C2026 0.931 . S
H2013 C2028 0.930 . S
C2014 H2002 0.930 . S
C2014 C2015 1.399 . S
C2014 C2019 1.399 . S
C2015 C2014 1.399 . S
C2015 C2016 1.376 . S
C2016 H2003 0.930 . S
C2016 C2015 1.376 . S
C2016 C2017 1.388 . S
C2017 H2004 0.930 . S
C2017 C2016 1.388 . S
C2017 C2018 1.390 . S
C2018 C2017 1.390 . S
C2018 C2019 1.394 . S
C2018 C2024 1.465 . S
C2019 C2014 1.399 . S
C2019 C2018 1.394 . S
C2019 C2020 1.516 . S
C2020 C2019 1.516 . S
C2020 C2021 1.502 . S
C2020 C2022 1.561 . S
C2020 C2023 1.526 . S
C2021 H2005 0.959 . S
C2021 H2006 0.959 . S
C2021 H2007 0.961 . S
C2021 C2020 1.502 . S
C2022 H2008 0.960 . S
C2022 H2009 0.961 . S
C2022 H2010 0.959 . S
C2022 C2020 1.561 . S
C2023 C2020 1.526 . S
C2023 C2024 1.396 . S
C2023 C2028 1.390 . S
C2024 C2018 1.465 . S
C2024 C2023 1.396 . S
C2024 C2025 1.399 . S
C2025 H2011 0.929 1_545 S
C2025 C2024 1.399 . S
C2025 C2026 1.385 1_545 S
C2026 H2012 0.931 . S
C2026 C2025 1.385 1_565 S
C2026 C2027 1.389 1_565 S
C2027 C2026 1.389 1_545 S
C2027 C2028 1.387 . S
C2028 H2013 0.930 . S
C2028 C2023 1.390 . S
C2028 C2027 1.387 . S
H2029 C2041 0.930 . S
H2030 C2043 0.930 . S
H2031 C2044 0.930 . S
H2032 C2048 0.959 . S
H2033 C2048 0.959 . S
H2034 C2048 0.961 . S
H2035 C2049 0.960 . S
H2036 C2049 0.961 . S
H2037 C2049 0.959 . S
H2038 C2052 0.929 . S
H2039 C2053 0.931 . S
H2040 C2055 0.930 . S
C2041 H2029 0.930 . S
C2041 C2042 1.399 . S
C2041 C2046 1.399 . S
C2042 C2041 1.399 . S
C2042 C2043 1.376 . S
C2043 H2030 0.930 . S
C2043 C2042 1.376 . S
C2043 C2044 1.388 . S
C2044 H2031 0.930 . S
C2044 C2043 1.388 . S
C2044 C2045 1.390 . S
C2045 C2044 1.390 . S
C2045 C2046 1.394 . S
C2045 C2051 1.465 . S
C2046 C2041 1.399 . S
C2046 C2045 1.394 . S
C2046 C2047 1.516 . S
C2047 C2046 1.516 . S
C2047 C2048 1.502 . S
C2047 C2049 1.561 . S
C2047 C2050 1.526 . S
C2048 H2032 0.959 . S
C2048 H2033 0.959 . S
C2048 H2034 0.961 . S
C2048 C2047 1.502 . S
C2049 H2035 0.960 . S
C2049 H2036 0.961 . S
C2049 H2037 0.959 . S
C2049 C2047 1.561 . S
C2050 C2047 1.526 . S
C2050 C2051 1.396 . S
C2050 C2055 1.390 . S
C2051 C2045 1.465 . S
C2051 C2050 1.396 . S
C2051 C2052 1.399 . S
C2052 H2038 0.929 . S
C2052 C2051 1.399 . S
C2052 C2053 1.385 . S
C2053 H2039 0.931 . S
C2053 C2052 1.385 . S
C2053 C2054 1.389 . S
C2054 C2053 1.389 . S
C2054 C2055 1.387 . S
C2055 H2040 0.930 . S
C2055 C2050 1.390 . S
C2055 C2054 1.387 . S
H2056 C2068 0.930 . S
H2057 C2070 0.930 . S
H2058 C2071 0.930 . S
H2059 C2075 0.959 . S
H2060 C2075 0.959 . S
H2061 C2075 0.961 . S
H2062 C2076 0.960 . S
H2063 C2076 0.961 . S
H2064 C2076 0.959 . S
H2065 C2079 0.929 . S
H2066 C2080 0.931 1_554 S
H2067 C2082 0.930 . S
C2068 H2056 0.930 . S
C2068 C2069 1.369 1_556 S
C2068 C2073 1.399 . S
C2069 C2068 1.369 1_554 S
C2069 C2070 1.401 . S
C2070 H2057 0.930 . S
C2070 C2069 1.401 . S
C2070 C2071 1.388 . S
C2071 H2058 0.930 . S
C2071 C2070 1.388 . S
C2071 C2072 1.390 1_554 S
C2072 C2071 1.390 1_556 S
C2072 C2073 1.394 . S
C2072 C2078 1.465 . S
C2073 C2068 1.399 . S
C2073 C2072 1.394 . S
C2073 C2074 1.516 . S
C2074 C2073 1.516 . S
C2074 C2075 1.502 . S
C2074 C2076 1.561 . S
C2074 C2077 1.526 . S
C2075 H2059 0.959 . S
C2075 H2060 0.959 . S
C2075 H2061 0.961 . S
C2075 C2074 1.502 . S
C2076 H2062 0.960 . S
C2076 H2063 0.961 . S
C2076 H2064 0.959 . S
C2076 C2074 1.561 . S
C2077 C2074 1.526 . S
C2077 C2078 1.396 . S
C2077 C2082 1.390 . S
C2078 C2072 1.465 . S
C2078 C2077 1.396 . S
C2078 C2079 1.399 1_556 S
C2079 H2065 0.929 . S
C2079 C2078 1.399 1_554 S
C2079 C2080 1.385 1_554 S
C2080 H2066 0.931 1_556 S
C2080 C2079 1.385 1_556 S
C2080 C2081 1.389 . S
C2081 C2080 1.389 . S
C2081 C2082 1.387 . S
C2082 H2067 0.930 . S
C2082 C2077 1.390 . S
C2082 C2081 1.387 . S
H2083 C2095 0.930 . S
H2084 C2097 0.930 1_556 S
H2085 C2098 0.931 . S
H2086 C2102 0.959 . S
H2087 C2102 0.959 . S
H2088 C2102 0.961 . S
H2089 C2103 0.960 . S
H2090 C2103 0.961 . S
H2091 C2103 0.959 . S
H2092 C2106 0.929 . S
H2093 C2107 0.942 . S
H2094 C2109 0.930 . S
C2095 H2083 0.930 . S
C2095 C2096 1.399 . S
C2095 C2100 1.399 . S
C2096 C2095 1.399 . S
C2096 C2097 1.376 . S
C2097 H2084 0.930 1_554 S
C2097 C2096 1.376 . S
C2097 C2098 1.388 1_554 S
C2098 H2085 0.931 . S
C2098 C2097 1.388 1_556 S
C2098 C2099 1.389 1_556 S
C2099 C2098 1.389 1_554 S
C2099 C2100 1.394 . S
C2099 C2105 1.465 . S
C2100 C2095 1.399 . S
C2100 C2099 1.394 . S
C2100 C2101 1.516 . S
C2101 C2100 1.516 . S
C2101 C2102 1.502 . S
C2101 C2103 1.561 . S
C2101 C2104 1.526 . S
C2102 H2086 0.959 . S
C2102 H2087 0.959 . S
C2102 H2088 0.961 . S
C2102 C2101 1.502 . S
C2103 H2089 0.960 . S
C2103 H2090 0.961 . S
C2103 H2091 0.959 . S
C2103 C2101 1.561 . S
C2104 C2101 1.526 . S
C2104 C2105 1.396 . S
C2104 C2109 1.390 . S
C2105 C2099 1.465 . S
C2105 C2104 1.396 . S
C2105 C2106 1.399 1_554 S
C2106 H2092 0.929 . S
C2106 C2105 1.399 1_556 S
C2106 C2107 1.384 . S
C2107 H2093 0.942 . S
C2107 C2106 1.384 . S
C2107 C2108 1.379 1_556 S
C2108 C2107 1.379 1_554 S
C2108 C2109 1.387 . S
C2109 H2094 0.930 . S
C2109 C2104 1.390 . S
C2109 C2108 1.387 . S
H2110 C2122 0.930 . S
H2111 C2124 0.930 . S
H2112 C2125 0.930 . S
H2113 C2129 0.959 . S
H2114 C2129 0.959 . S
H2115 C2129 0.961 . S
H2116 C2130 0.960 . S
H2117 C2130 0.961 . S
H2118 C2130 0.959 . S
H2119 C2133 0.929 . S
H2120 C2134 0.931 . S
H2121 C2136 0.930 . S
C2122 H2110 0.930 . S
C2122 C2123 1.399 . S
C2122 C2127 1.399 . S
C2123 C2122 1.399 . S
C2123 C2124 1.376 . S
C2124 H2111 0.930 . S
C2124 C2123 1.376 . S
C2124 C2125 1.388 . S
C2125 H2112 0.930 . S
C2125 C2124 1.388 . S
C2125 C2126 1.390 . S
C2126 C2125 1.390 . S
C2126 C2127 1.394 . S
C2126 C2132 1.465 . S
C2127 C2122 1.399 . S
C2127 C2126 1.394 . S
C2127 C2128 1.516 . S
C2128 C2127 1.516 . S
C2128 C2129 1.502 . S
C2128 C2130 1.561 . S
C2128 C2131 1.526 . S
C2129 H2113 0.959 . S
C2129 H2114 0.959 . S
C2129 H2115 0.961 . S
C2129 C2128 1.502 . S
C2130 H2116 0.960 . S
C2130 H2117 0.961 . S
C2130 H2118 0.959 . S
C2130 C2128 1.561 . S
C2131 C2128 1.526 . S
C2131 C2132 1.396 . S
C2131 C2136 1.390 . S
C2132 C2126 1.465 . S
C2132 C2131 1.396 . S
C2132 C2133 1.399 . S
C2133 H2119 0.929 . S
C2133 C2132 1.399 . S
C2133 C2134 1.385 . S
C2134 H2120 0.931 . S
C2134 C2133 1.385 . S
C2134 C2135 1.389 . S
C2135 C2134 1.389 . S
C2135 C2136 1.387 . S
C2136 H2121 0.930 . S
C2136 C2131 1.390 . S
C2136 C2135 1.387 . S
H2137 C2149 0.930 . S
H2138 C2151 0.930 . S
H2139 C2152 0.930 . S
H2140 C2156 0.959 . S
H2141 C2156 0.959 . S
H2142 C2156 0.961 . S
H2143 C2157 0.960 . S
H2144 C2157 0.961 . S
H2145 C2157 0.959 . S
H2146 C2160 0.929 . S
H2147 C2161 0.931 . S
H2148 C2163 0.930 . S
C2149 H2137 0.930 . S
C2149 C2150 1.399 . S
C2149 C2154 1.399 . S
C2150 C2149 1.399 . S
C2150 C2151 1.376 . S
C2151 H2138 0.930 . S
C2151 C2150 1.376 . S
C2151 C2152 1.388 . S
C2152 H2139 0.930 . S
C2152 C2151 1.388 . S
C2152 C2153 1.390 . S
C2153 C2152 1.390 . S
C2153 C2154 1.394 . S
C2153 C2159 1.465 . S
C2154 C2149 1.399 . S
C2154 C2153 1.394 . S
C2154 C2155 1.516 . S
C2155 C2154 1.516 . S
C2155 C2156 1.502 . S
C2155 C2157 1.561 . S
C2155 C2158 1.526 . S
C2156 H2140 0.959 . S
C2156 H2141 0.959 . S
C2156 H2142 0.961 . S
C2156 C2155 1.502 . S
C2157 H2143 0.960 . S
C2157 H2144 0.961 . S
C2157 H2145 0.959 . S
C2157 C2155 1.561 . S
C2158 C2155 1.526 . S
C2158 C2159 1.396 . S
C2158 C2163 1.390 . S
C2159 C2153 1.465 . S
C2159 C2158 1.396 . S
C2159 C2160 1.399 . S
C2160 H2146 0.929 . S
C2160 C2159 1.399 . S
C2160 C2161 1.385 . S
C2161 H2147 0.931 . S
C2161 C2160 1.385 . S
C2161 C2162 1.389 . S
C2162 C2161 1.389 . S
C2162 C2163 1.387 . S
C2163 H2148 0.930 . S
C2163 C2158 1.390 . S
C2163 C2162 1.387 . S
H2164 C2176 0.930 . S
H2165 C2178 0.930 . S
H2166 C2179 0.930 . S
H2167 C2183 0.959 . S
H2168 C2183 0.959 . S
H2169 C2183 0.961 . S
H2170 C2184 0.960 . S
H2171 C2184 0.961 . S
H2172 C2184 0.959 . S
H2173 C2187 0.929 . S
H2174 C2188 0.931 . S
H2175 C2190 0.930 . S
C2176 H2164 0.930 . S
C2176 C2177 1.399 . S
C2176 C2181 1.399 . S
C2177 C2176 1.399 . S
C2177 C2178 1.376 . S
C2178 H2165 0.930 . S
C2178 C2177 1.376 . S
C2178 C2179 1.388 . S
C2179 H2166 0.930 . S
C2179 C2178 1.388 . S
C2179 C2180 1.390 . S
C2180 C2179 1.390 . S
C2180 C2181 1.394 . S
C2180 C2186 1.465 . S
C2181 C2176 1.399 . S
C2181 C2180 1.394 . S
C2181 C2182 1.516 . S
C2182 C2181 1.516 . S
C2182 C2183 1.502 . S
C2182 C2184 1.561 . S
C2182 C2185 1.526 . S
C2183 H2167 0.959 . S
C2183 H2168 0.959 . S
C2183 H2169 0.961 . S
C2183 C2182 1.502 . S
C2184 H2170 0.960 . S
C2184 H2171 0.961 . S
C2184 H2172 0.959 . S
C2184 C2182 1.561 . S
C2185 C2182 1.526 . S
C2185 C2186 1.396 . S
C2185 C2190 1.390 . S
C2186 C2180 1.465 . S
C2186 C2185 1.396 . S
C2186 C2187 1.399 . S
C2187 H2173 0.929 . S
C2187 C2186 1.399 . S
C2187 C2188 1.385 . S
C2188 H2174 0.931 . S
C2188 C2187 1.385 . S
C2188 C2189 1.389 . S
C2189 C2188 1.389 . S
C2189 C2190 1.387 . S
C2190 H2175 0.930 . S
C2190 C2185 1.390 . S
C2190 C2189 1.387 . S
H2191 C2203 0.930 . S
H2192 C2205 0.930 . S
H2193 C2206 0.930 . S
H2194 C2210 0.959 . S
H2195 C2210 0.959 . S
H2196 C2210 0.961 . S
H2197 C2211 0.960 . S
H2198 C2211 0.961 . S
H2199 C2211 0.959 . S
H2200 C2214 0.929 . S
H2201 C2215 0.931 1_545 S
H2202 C2217 0.930 . S
C2203 H2191 0.930 . S
C2203 C2204 1.399 . S
C2203 C2208 1.399 . S
C2204 C2203 1.399 . S
C2204 C2205 1.376 . S
C2205 H2192 0.930 . S
C2205 C2204 1.376 . S
C2205 C2206 1.388 . S
C2206 H2193 0.930 . S
C2206 C2205 1.388 . S
C2206 C2207 1.390 . S
C2207 C2206 1.390 . S
C2207 C2208 1.394 . S
C2207 C2213 1.465 . S
C2208 C2203 1.399 . S
C2208 C2207 1.394 . S
C2208 C2209 1.516 . S
C2209 C2208 1.516 . S
C2209 C2210 1.502 . S
C2209 C2211 1.561 . S
C2209 C2212 1.526 . S
C2210 H2194 0.959 . S
C2210 H2195 0.959 . S
C2210 H2196 0.961 . S
C2210 C2209 1.502 . S
C2211 H2197 0.960 . S
C2211 H2198 0.961 . S
C2211 H2199 0.959 . S
C2211 C2209 1.561 . S
C2212 C2209 1.526 . S
C2212 C2213 1.396 . S
C2212 C2217 1.390 . S
C2213 C2207 1.465 . S
C2213 C2212 1.396 . S
C2213 C2214 1.399 . S
C2214 H2200 0.929 . S
C2214 C2213 1.399 . S
C2214 C2215 1.385 . S
C2215 H2201 0.931 1_565 S
C2215 C2214 1.385 . S
C2215 C2216 1.389 . S
C2216 C2215 1.389 . S
C2216 C2217 1.387 . S
C2217 H2202 0.930 . S
C2217 C2212 1.390 . S
C2217 C2216 1.387 . S
H2218 C2230 0.930 . S
H2219 C2232 0.930 . S
H2220 C2233 0.930 . S
H2221 C2237 0.959 . S
H2222 C2237 0.959 . S
H2223 C2237 0.961 . S
H2224 C2238 0.960 . S
H2225 C2238 0.961 . S
H2226 C2238 0.959 . S
H2227 C2241 0.929 . S
H2228 C2242 0.931 . S
H2229 C2244 0.930 . S
C2230 H2218 0.930 . S
C2230 C2231 1.399 . S
C2230 C2235 1.399 . S
C2231 C2230 1.399 . S
C2231 C2232 1.376 . S
C2232 H2219 0.930 . S
C2232 C2231 1.376 . S
C2232 C2233 1.388 . S
C2233 H2220 0.930 . S
C2233 C2232 1.388 . S
C2233 C2234 1.390 . S
C2234 C2233 1.390 . S
C2234 C2235 1.394 . S
C2234 C2240 1.465 . S
C2235 C2230 1.399 . S
C2235 C2234 1.394 . S
C2235 C2236 1.516 . S
C2236 C2235 1.516 . S
C2236 C2237 1.502 . S
C2236 C2238 1.561 . S
C2236 C2239 1.526 . S
C2237 H2221 0.959 . S
C2237 H2222 0.959 . S
C2237 H2223 0.961 . S
C2237 C2236 1.502 . S
C2238 H2224 0.960 . S
C2238 H2225 0.961 . S
C2238 H2226 0.959 . S
C2238 C2236 1.561 . S
C2239 C2236 1.526 . S
C2239 C2240 1.396 . S
C2239 C2244 1.390 . S
C2240 C2234 1.465 . S
C2240 C2239 1.396 . S
C2240 C2241 1.399 . S
C2241 H2227 0.929 . S
C2241 C2240 1.399 . S
C2241 C2242 1.385 . S
C2242 H2228 0.931 . S
C2242 C2241 1.385 . S
C2242 C2243 1.389 . S
C2243 C2242 1.389 . S
C2243 C2244 1.387 . S
C2244 H2229 0.930 . S
C2244 C2239 1.390 . S
C2244 C2243 1.387 . S
H2245 C2257 0.930 . S
H2246 C2259 0.930 . S
H2247 C2260 0.930 . S
H2248 C2264 0.959 . S
H2249 C2264 0.959 . S
H2250 C2264 0.961 . S
H2251 C2265 0.960 . S
H2252 C2265 0.961 . S
H2253 C2265 0.959 . S
H2254 C2268 0.929 . S
H2255 C2269 0.931 . S
H2256 C2271 0.930 . S
C2257 H2245 0.930 . S
C2257 C2258 1.399 . S
C2257 C2262 1.399 . S
C2258 C2257 1.399 . S
C2258 C2259 1.376 . S
C2259 H2246 0.930 . S
C2259 C2258 1.376 . S
C2259 C2260 1.388 . S
C2260 H2247 0.930 . S
C2260 C2259 1.388 . S
C2260 C2261 1.390 . S
C2261 C2260 1.390 . S
C2261 C2262 1.394 . S
C2261 C2267 1.465 . S
C2262 C2257 1.399 . S
C2262 C2261 1.394 . S
C2262 C2263 1.516 . S
C2263 C2262 1.516 . S
C2263 C2264 1.502 . S
C2263 C2265 1.561 . S
C2263 C2266 1.526 . S
C2264 H2248 0.959 . S
C2264 H2249 0.959 . S
C2264 H2250 0.961 . S
C2264 C2263 1.502 . S
C2265 H2251 0.960 . S
C2265 H2252 0.961 . S
C2265 H2253 0.959 . S
C2265 C2263 1.561 . S
C2266 C2263 1.526 . S
C2266 C2267 1.396 . S
C2266 C2271 1.390 . S
C2267 C2261 1.465 . S
C2267 C2266 1.396 . S
C2267 C2268 1.399 . S
C2268 H2254 0.929 . S
C2268 C2267 1.399 . S
C2268 C2269 1.385 . S
C2269 H2255 0.931 . S
C2269 C2268 1.385 . S
C2269 C2270 1.389 . S
C2270 C2269 1.389 . S
C2270 C2271 1.387 . S
C2271 H2256 0.930 . S
C2271 C2266 1.390 . S
C2271 C2270 1.387 . S
H2272 C2284 0.930 . S
H2273 C2286 0.930 . S
H2274 C2287 0.930 . S
H2275 C2291 0.959 . S
H2276 C2291 0.959 . S
H2277 C2291 0.961 . S
H2278 C2292 0.960 . S
H2279 C2292 0.961 . S
H2280 C2292 0.959 . S
H2281 C2295 0.929 . S
H2282 C2296 0.931 . S
H2283 C2298 0.930 . S
C2284 H2272 0.930 . S
C2284 C2285 1.399 . S
C2284 C2289 1.399 . S
C2285 C2284 1.399 . S
C2285 C2286 1.376 . S
C2286 H2273 0.930 . S
C2286 C2285 1.376 . S
C2286 C2287 1.388 . S
C2287 H2274 0.930 . S
C2287 C2286 1.388 . S
C2287 C2288 1.390 . S
C2288 C2287 1.390 . S
C2288 C2289 1.394 . S
C2288 C2294 1.465 . S
C2289 C2284 1.399 . S
C2289 C2288 1.394 . S
C2289 C2290 1.516 . S
C2290 C2289 1.516 . S
C2290 C2291 1.502 . S
C2290 C2292 1.561 . S
C2290 C2293 1.526 . S
C2291 H2275 0.959 . S
C2291 H2276 0.959 . S
C2291 H2277 0.961 . S
C2291 C2290 1.502 . S
C2292 H2278 0.960 . S
C2292 H2279 0.961 . S
C2292 H2280 0.959 . S
C2292 C2290 1.561 . S
C2293 C2290 1.526 . S
C2293 C2294 1.396 . S
C2293 C2298 1.390 . S
C2294 C2288 1.465 . S
C2294 C2293 1.396 . S
C2294 C2295 1.399 . S
C2295 H2281 0.929 . S
C2295 C2294 1.399 . S
C2295 C2296 1.385 . S
C2296 H2282 0.931 . S
C2296 C2295 1.385 . S
C2296 C2297 1.389 . S
C2297 C2296 1.389 . S
C2297 C2298 1.387 . S
C2298 H2283 0.930 . S
C2298 C2293 1.390 . S
C2298 C2297 1.387 . S
H2299 C2311 0.930 . S
H2300 C2313 0.930 . S
H2301 C2314 0.930 . S
H2302 C2318 0.959 . S
H2303 C2318 0.959 . S
H2304 C2318 0.961 . S
H2305 C2319 0.960 . S
H2306 C2319 0.961 . S
H2307 C2319 0.959 . S
H2308 C2322 0.929 . S
H2309 C2323 0.931 . S
H2310 C2325 0.930 . S
C2311 H2299 0.930 . S
C2311 C2312 1.399 . S
C2311 C2316 1.399 . S
C2312 C2311 1.399 . S
C2312 C2313 1.376 . S
C2313 H2300 0.930 . S
C2313 C2312 1.376 . S
C2313 C2314 1.388 . S
C2314 H2301 0.930 . S
C2314 C2313 1.388 . S
C2314 C2315 1.390 . S
C2315 C2314 1.390 . S
C2315 C2316 1.394 . S
C2315 C2321 1.465 . S
C2316 C2311 1.399 . S
C2316 C2315 1.394 . S
C2316 C2317 1.516 . S
C2317 C2316 1.516 . S
C2317 C2318 1.502 . S
C2317 C2319 1.561 . S
C2317 C2320 1.526 . S
C2318 H2302 0.959 . S
C2318 H2303 0.959 . S
C2318 H2304 0.961 . S
C2318 C2317 1.502 . S
C2319 H2305 0.960 . S
C2319 H2306 0.961 . S
C2319 H2307 0.959 . S
C2319 C2317 1.561 . S
C2320 C2317 1.526 . S
C2320 C2321 1.396 . S
C2320 C2325 1.390 . S
C2321 C2315 1.465 . S
C2321 C2320 1.396 . S
C2321 C2322 1.399 . S
C2322 H2308 0.929 . S
C2322 C2321 1.399 . S
C2322 C2323 1.385 . S
C2323 H2309 0.931 . S
C2323 C2322 1.385 . S
C2323 C2324 1.389 . S
C2324 C2323 1.389 . S
C2324 C2325 1.387 . S
C2325 H2310 0.930 . S
C2325 C2320 1.390 . S
C2325 C2324 1.387 . S
H2326 C2338 0.930 . S
H2327 C2340 0.930 . S
H2328 C2341 0.930 . S
H2329 C2345 0.959 . S
H2330 C2345 0.959 . S
H2331 C2345 0.961 . S
H2332 C2346 0.960 . S
H2333 C2346 0.961 . S
H2334 C2346 0.959 . S
H2335 C2349 0.929 . S
H2336 C2350 0.931 . S
H2337 C2352 0.930 . S
C2338 H2326 0.930 . S
C2338 C2339 1.399 . S
C2338 C2343 1.399 . S
C2339 C2338 1.399 . S
C2339 C2340 1.376 . S
C2340 H2327 0.930 . S
C2340 C2339 1.376 . S
C2340 C2341 1.388 . S
C2341 H2328 0.930 . S
C2341 C2340 1.388 . S
C2341 C2342 1.390 . S
C2342 C2341 1.390 . S
C2342 C2343 1.394 . S
C2342 C2348 1.465 . S
C2343 C2338 1.399 . S
C2343 C2342 1.394 . S
C2343 C2344 1.516 . S
C2344 C2343 1.516 . S
C2344 C2345 1.502 1_455 S
C2344 C2346 1.561 . S
C2344 C2347 1.526 . S
C2345 H2329 0.959 . S
C2345 H2330 0.959 . S
C2345 H2331 0.961 . S
C2345 C2344 1.502 1_655 S
C2346 H2332 0.960 . S
C2346 H2333 0.961 . S
C2346 H2334 0.959 . S
C2346 C2344 1.561 . S
C2347 C2344 1.526 . S
C2347 C2348 1.396 . S
C2347 C2352 1.390 . S
C2348 C2342 1.465 . S
C2348 C2347 1.396 . S
C2348 C2349 1.399 . S
C2349 H2335 0.929 . S
C2349 C2348 1.399 . S
C2349 C2350 1.385 . S
C2350 H2336 0.931 . S
C2350 C2349 1.385 . S
C2350 C2351 1.389 . S
C2351 C2350 1.389 . S
C2351 C2352 1.387 . S
C2352 H2337 0.930 . S
C2352 C2347 1.390 . S
C2352 C2351 1.387 . S
H2353 C2365 0.930 . S
H2354 C2367 0.930 . S
H2355 C2368 0.930 . S
H2356 C2372 0.959 . S
H2357 C2372 0.959 . S
H2358 C2372 0.961 . S
H2359 C2373 0.960 . S
H2360 C2373 0.961 1_655 S
H2361 C2373 0.959 . S
H2362 C2376 0.929 . S
H2363 C2377 0.931 . S
H2364 C2379 0.930 . S
C2365 H2353 0.930 . S
C2365 C2366 1.399 . S
C2365 C2370 1.399 . S
C2366 C2365 1.399 . S
C2366 C2367 1.376 . S
C2367 H2354 0.930 . S
C2367 C2366 1.376 . S
C2367 C2368 1.388 . S
C2368 H2355 0.930 . S
C2368 C2367 1.388 . S
C2368 C2369 1.390 . S
C2369 C2368 1.390 . S
C2369 C2370 1.394 . S
C2369 C2375 1.465 1_455 S
C2370 C2365 1.399 . S
C2370 C2369 1.394 . S
C2370 C2371 1.516 1_455 S
C2371 C2370 1.516 1_655 S
C2371 C2372 1.502 . S
C2371 C2373 1.561 1_655 S
C2371 C2374 1.526 . S
C2372 H2356 0.959 . S
C2372 H2357 0.959 . S
C2372 H2358 0.961 . S
C2372 C2371 1.502 . S
C2373 H2359 0.960 . S
C2373 H2360 0.961 1_455 S
C2373 H2361 0.959 . S
C2373 C2371 1.561 1_455 S
C2374 C2371 1.526 . S
C2374 C2375 1.396 . S
C2374 C2379 1.390 . S
C2375 C2369 1.465 1_655 S
C2375 C2374 1.396 . S
C2375 C2376 1.399 . S
C2376 H2362 0.929 . S
C2376 C2375 1.399 . S
C2376 C2377 1.385 . S
C2377 H2363 0.931 . S
C2377 C2376 1.385 . S
C2377 C2378 1.389 . S
C2378 C2377 1.389 . S
C2378 C2379 1.387 . S
C2379 H2364 0.930 . S
C2379 C2374 1.390 . S
C2379 C2378 1.387 . S
H2380 C2392 0.930 . S
H2381 C2394 0.930 . S
H2382 C2395 0.930 . S
H2383 C2399 0.959 . S
H2384 C2399 0.959 . S
H2385 C2399 0.961 . S
H2386 C2400 0.960 . S
H2387 C2400 0.961 . S
H2388 C2400 0.959 . S
H2389 C2403 0.929 . S
H2390 C2404 0.931 . S
H2391 C2406 0.930 . S
C2392 H2380 0.930 . S
C2392 C2393 1.399 . S
C2392 C2397 1.399 . S
C2393 C2392 1.399 . S
C2393 C2394 1.376 . S
C2394 H2381 0.930 . S
C2394 C2393 1.376 . S
C2394 C2395 1.388 . S
C2395 H2382 0.930 . S
C2395 C2394 1.388 . S
C2395 C2396 1.390 . S
C2396 C2395 1.390 . S
C2396 C2397 1.394 . S
C2396 C2402 1.465 . S
C2397 C2392 1.399 . S
C2397 C2396 1.394 . S
C2397 C2398 1.516 . S
C2398 C2397 1.516 . S
C2398 C2399 1.502 . S
C2398 C2400 1.561 . S
C2398 C2401 1.526 . S
C2399 H2383 0.959 . S
C2399 H2384 0.959 . S
C2399 H2385 0.961 . S
C2399 C2398 1.502 . S
C2400 H2386 0.960 . S
C2400 H2387 0.961 . S
C2400 H2388 0.959 . S
C2400 C2398 1.561 . S
C2401 C2398 1.526 . S
C2401 C2402 1.396 . S
C2401 C2406 1.390 . S
C2402 C2396 1.465 . S
C2402 C2401 1.396 . S
C2402 C2403 1.399 . S
C2403 H2389 0.929 . S
C2403 C2402 1.399 . S
C2403 C2404 1.385 . S
C2404 H2390 0.931 . S
C2404 C2403 1.385 . S
C2404 C2405 1.389 . S
C2405 C2404 1.389 . S
C2405 C2406 1.387 . S
C2406 H2391 0.930 . S
C2406 C2401 1.390 . S
C2406 C2405 1.387 . S
H2407 C2419 0.930 . S
H2408 C2421 0.930 . S
H2409 C2422 0.930 . S
H2410 C2426 0.959 . S
H2411 C2426 0.959 . S
H2412 C2426 0.961 . S
H2413 C2427 0.960 . S
H2414 C2427 0.961 . S
H2415 C2427 0.959 . S
H2416 C2430 0.929 . S
H2417 C2431 0.931 . S
H2418 C2433 0.930 . S
C2419 H2407 0.930 . S
C2419 C2420 1.399 . S
C2419 C2424 1.399 . S
C2420 C2419 1.399 . S
C2420 C2421 1.376 . S
C2421 H2408 0.930 . S
C2421 C2420 1.376 . S
C2421 C2422 1.388 . S
C2422 H2409 0.930 . S
C2422 C2421 1.388 . S
C2422 C2423 1.390 . S
C2423 C2422 1.390 . S
C2423 C2424 1.394 . S
C2423 C2429 1.465 . S
C2424 C2419 1.399 . S
C2424 C2423 1.394 . S
C2424 C2425 1.516 . S
C2425 C2424 1.516 . S
C2425 C2426 1.502 . S
C2425 C2427 1.561 . S
C2425 C2428 1.526 . S
C2426 H2410 0.959 . S
C2426 H2411 0.959 . S
C2426 H2412 0.961 . S
C2426 C2425 1.502 . S
C2427 H2413 0.960 . S
C2427 H2414 0.961 . S
C2427 H2415 0.959 . S
C2427 C2425 1.561 . S
C2428 C2425 1.526 . S
C2428 C2429 1.396 . S
C2428 C2433 1.390 . S
C2429 C2423 1.465 . S
C2429 C2428 1.396 . S
C2429 C2430 1.399 . S
C2430 H2416 0.929 . S
C2430 C2429 1.399 . S
C2430 C2431 1.385 . S
C2431 H2417 0.931 . S
C2431 C2430 1.385 . S
C2431 C2432 1.389 . S
C2432 C2431 1.389 . S
C2432 C2433 1.387 . S
C2433 H2418 0.930 . S
C2433 C2428 1.390 . S
C2433 C2432 1.387 . S
H2434 C2446 0.930 . S
H2435 C2448 0.930 . S
H2436 C2449 0.930 . S
H2437 C2453 0.959 . S
H2438 C2453 0.959 . S
H2439 C2453 0.961 . S
H2440 C2454 0.960 . S
H2441 C2454 0.961 . S
H2442 C2454 0.959 . S
H2443 C2457 0.929 . S
H2444 C2458 0.931 . S
H2445 C2460 0.930 . S
C2446 H2434 0.930 . S
C2446 C2447 1.399 . S
C2446 C2451 1.399 . S
C2447 C2446 1.399 . S
C2447 C2448 1.376 . S
C2448 H2435 0.930 . S
C2448 C2447 1.376 . S
C2448 C2449 1.388 . S
C2449 H2436 0.930 . S
C2449 C2448 1.388 . S
C2449 C2450 1.390 . S
C2450 C2449 1.390 . S
C2450 C2451 1.394 . S
C2450 C2456 1.465 . S
C2451 C2446 1.399 . S
C2451 C2450 1.394 . S
C2451 C2452 1.516 . S
C2452 C2451 1.516 . S
C2452 C2453 1.502 . S
C2452 C2454 1.561 . S
C2452 C2455 1.526 . S
C2453 H2437 0.959 . S
C2453 H2438 0.959 . S
C2453 H2439 0.961 . S
C2453 C2452 1.502 . S
C2454 H2440 0.960 . S
C2454 H2441 0.961 . S
C2454 H2442 0.959 . S
C2454 C2452 1.561 . S
C2455 C2452 1.526 . S
C2455 C2456 1.396 . S
C2455 C2460 1.390 . S
C2456 C2450 1.465 . S
C2456 C2455 1.396 . S
C2456 C2457 1.399 . S
C2457 H2443 0.929 . S
C2457 C2456 1.399 . S
C2457 C2458 1.385 . S
C2458 H2444 0.931 . S
C2458 C2457 1.385 . S
C2458 C2459 1.389 . S
C2459 C2458 1.389 . S
C2459 C2460 1.387 . S
C2460 H2445 0.930 . S
C2460 C2455 1.390 . S
C2460 C2459 1.387 . S
H2461 C2473 0.930 . S
H2462 C2475 0.930 . S
H2463 C2476 0.930 . S
H2464 C2480 0.959 . S
H2465 C2480 0.959 . S
H2466 C2480 0.961 . S
H2467 C2481 0.960 . S
H2468 C2481 0.961 . S
H2469 C2481 0.959 . S
H2470 C2484 0.929 . S
H2471 C2485 0.931 . S
H2472 C2487 0.930 . S
C2473 H2461 0.930 . S
C2473 C2474 1.399 . S
C2473 C2478 1.399 . S
C2474 C2473 1.399 . S
C2474 C2475 1.376 . S
C2475 H2462 0.930 . S
C2475 C2474 1.376 . S
C2475 C2476 1.388 . S
C2476 H2463 0.930 . S
C2476 C2475 1.388 . S
C2476 C2477 1.390 . S
C2477 C2476 1.390 . S
C2477 C2478 1.394 . S
C2477 C2483 1.465 . S
C2478 C2473 1.399 . S
C2478 C2477 1.394 . S
C2478 C2479 1.516 . S
C2479 C2478 1.516 . S
C2479 C2480 1.502 . S
C2479 C2481 1.561 . S
C2479 C2482 1.526 . S
C2480 H2464 0.959 . S
C2480 H2465 0.959 . S
C2480 H2466 0.961 . S
C2480 C2479 1.502 . S
C2481 H2467 0.960 . S
C2481 H2468 0.961 . S
C2481 H2469 0.959 . S
C2481 C2479 1.561 . S
C2482 C2479 1.526 . S
C2482 C2483 1.396 . S
C2482 C2487 1.390 . S
C2483 C2477 1.465 . S
C2483 C2482 1.396 . S
C2483 C2484 1.399 . S
C2484 H2470 0.929 . S
C2484 C2483 1.399 . S
C2484 C2485 1.385 . S
C2485 H2471 0.931 . S
C2485 C2484 1.385 . S
C2485 C2486 1.389 . S
C2486 C2485 1.389 . S
C2486 C2487 1.387 . S
C2487 H2472 0.930 . S
C2487 C2482 1.390 . S
C2487 C2486 1.387 . S
H2488 C2500 0.930 . S
H2489 C2502 0.930 . S
H2490 C2503 0.930 . S
H2491 C2507 0.959 . S
H2492 C2507 0.959 . S
H2493 C2507 0.961 . S
H2494 C2508 0.960 . S
H2495 C2508 0.961 . S
H2496 C2508 0.959 . S
H2497 C2511 0.929 . S
H2498 C2512 0.931 . S
H2499 C2514 0.930 . S
C2500 H2488 0.930 . S
C2500 C2501 1.399 . S
C2500 C2505 1.399 . S
C2501 C2500 1.399 . S
C2501 C2502 1.376 . S
C2502 H2489 0.930 . S
C2502 C2501 1.376 . S
C2502 C2503 1.388 . S
C2503 H2490 0.930 . S
C2503 C2502 1.388 . S
C2503 C2504 1.390 . S
C2504 C2503 1.390 . S
C2504 C2505 1.394 . S
C2504 C2510 1.465 . S
C2505 C2500 1.399 . S
C2505 C2504 1.394 . S
C2505 C2506 1.516 . S
C2506 C2505 1.516 . S
C2506 C2507 1.502 . S
C2506 C2508 1.561 . S
C2506 C2509 1.526 . S
C2507 H2491 0.959 . S
C2507 H2492 0.959 . S
C2507 H2493 0.961 . S
C2507 C2506 1.502 . S
C2508 H2494 0.960 . S
C2508 H2495 0.961 . S
C2508 H2496 0.959 . S
C2508 C2506 1.561 . S
C2509 C2506 1.526 . S
C2509 C2510 1.396 . S
C2509 C2514 1.390 . S
C2510 C2504 1.465 . S
C2510 C2509 1.396 . S
C2510 C2511 1.399 . S
C2511 H2497 0.929 . S
C2511 C2510 1.399 . S
C2511 C2512 1.385 . S
C2512 H2498 0.931 . S
C2512 C2511 1.385 . S
C2512 C2513 1.389 . S
C2513 C2512 1.389 . S
C2513 C2514 1.387 . S
C2514 H2499 0.930 . S
C2514 C2509 1.390 . S
C2514 C2513 1.387 . S
H2515 C2527 0.930 . S
H2516 C2529 0.930 . S
H2517 C2530 0.930 . S
H2518 C2534 0.959 . S
H2519 C2534 0.959 . S
H2520 C2534 0.961 . S
H2521 C2535 0.960 . S
H2522 C2535 0.961 . S
H2523 C2535 0.959 . S
H2524 C2538 0.929 . S
H2525 C2539 0.931 . S
H2526 C2541 0.930 . S
C2527 H2515 0.930 . S
C2527 C2528 1.399 . S
C2527 C2532 1.399 . S
C2528 C2527 1.399 . S
C2528 C2529 1.376 . S
C2529 H2516 0.930 . S
C2529 C2528 1.376 . S
C2529 C2530 1.388 . S
C2530 H2517 0.930 . S
C2530 C2529 1.388 . S
C2530 C2531 1.390 . S
C2531 C2530 1.390 . S
C2531 C2532 1.394 . S
C2531 C2537 1.465 . S
C2532 C2527 1.399 . S
C2532 C2531 1.394 . S
C2532 C2533 1.516 . S
C2533 C2532 1.516 . S
C2533 C2534 1.502 . S
C2533 C2535 1.561 . S
C2533 C2536 1.526 . S
C2534 H2518 0.959 . S
C2534 H2519 0.959 . S
C2534 H2520 0.961 . S
C2534 C2533 1.502 . S
C2535 H2521 0.960 . S
C2535 H2522 0.961 . S
C2535 H2523 0.959 . S
C2535 C2533 1.561 . S
C2536 C2533 1.526 . S
C2536 C2537 1.396 . S
C2536 C2541 1.390 . S
C2537 C2531 1.465 . S
C2537 C2536 1.396 . S
C2537 C2538 1.399 . S
C2538 H2524 0.929 . S
C2538 C2537 1.399 . S
C2538 C2539 1.385 . S
C2539 H2525 0.931 . S
C2539 C2538 1.385 . S
C2539 C2540 1.389 . S
C2540 C2539 1.389 . S
C2540 C2541 1.387 . S
C2541 H2526 0.930 . S
C2541 C2536 1.390 . S
C2541 C2540 1.387 . S
H2542 C2554 0.930 . S
H2543 C2556 0.930 . S
H2544 C2557 0.930 . S
H2545 C2561 0.959 . S
H2546 C2561 0.959 . S
H2547 C2561 0.961 . S
H2548 C2562 0.960 . S
H2549 C2562 0.961 . S
H2550 C2562 0.959 . S
H2551 C2565 0.929 . S
H2552 C2566 0.931 . S
H2553 C2568 0.930 . S
C2554 H2542 0.930 . S
C2554 C2555 1.399 . S
C2554 C2559 1.399 . S
C2555 C2554 1.399 . S
C2555 C2556 1.376 . S
C2556 H2543 0.930 . S
C2556 C2555 1.376 . S
C2556 C2557 1.388 . S
C2557 H2544 0.930 . S
C2557 C2556 1.388 . S
C2557 C2558 1.390 . S
C2558 C2557 1.390 . S
C2558 C2559 1.394 . S
C2558 C2564 1.465 . S
C2559 C2554 1.399 . S
C2559 C2558 1.394 . S
C2559 C2560 1.516 . S
C2560 C2559 1.516 . S
C2560 C2561 1.502 . S
C2560 C2562 1.561 . S
C2560 C2563 1.526 . S
C2561 H2545 0.959 . S
C2561 H2546 0.959 . S
C2561 H2547 0.961 . S
C2561 C2560 1.502 . S
C2562 H2548 0.960 . S
C2562 H2549 0.961 . S
C2562 H2550 0.959 . S
C2562 C2560 1.561 . S
C2563 C2560 1.526 . S
C2563 C2564 1.396 . S
C2563 C2568 1.390 . S
C2564 C2558 1.465 . S
C2564 C2563 1.396 . S
C2564 C2565 1.399 . S
C2565 H2551 0.929 . S
C2565 C2564 1.399 . S
C2565 C2566 1.385 . S
C2566 H2552 0.931 . S
C2566 C2565 1.385 . S
C2566 C2567 1.389 . S
C2567 C2566 1.389 . S
C2567 C2568 1.387 . S
C2568 H2553 0.930 . S
C2568 C2563 1.390 . S
C2568 C2567 1.387 . S
H2569 C2581 0.930 . S
H2570 C2583 0.930 . S
H2571 C2584 0.930 . S
H2572 C2588 0.959 . S
H2573 C2588 0.959 . S
H2574 C2588 0.961 . S
H2575 C2589 0.960 . S
H2576 C2589 0.961 . S
H2577 C2589 0.959 . S
H2578 C2592 0.929 . S
H2579 C2593 0.931 . S
H2580 C2595 0.930 . S
C2581 H2569 0.930 . S
C2581 C2582 1.399 . S
C2581 C2586 1.399 . S
C2582 C2581 1.399 . S
C2582 C2583 1.376 . S
C2583 H2570 0.930 . S
C2583 C2582 1.376 . S
C2583 C2584 1.388 . S
C2584 H2571 0.930 . S
C2584 C2583 1.388 . S
C2584 C2585 1.390 . S
C2585 C2584 1.390 . S
C2585 C2586 1.394 . S
C2585 C2591 1.465 . S
C2586 C2581 1.399 . S
C2586 C2585 1.394 . S
C2586 C2587 1.516 . S
C2587 C2586 1.516 . S
C2587 C2588 1.502 . S
C2587 C2589 1.561 . S
C2587 C2590 1.526 . S
C2588 H2572 0.959 . S
C2588 H2573 0.959 . S
C2588 H2574 0.961 . S
C2588 C2587 1.502 . S
C2589 H2575 0.960 . S
C2589 H2576 0.961 . S
C2589 H2577 0.959 . S
C2589 C2587 1.561 . S
C2590 C2587 1.526 . S
C2590 C2591 1.396 . S
C2590 C2595 1.390 . S
C2591 C2585 1.465 . S
C2591 C2590 1.396 . S
C2591 C2592 1.399 . S
C2592 H2578 0.929 . S
C2592 C2591 1.399 . S
C2592 C2593 1.385 . S
C2593 H2579 0.931 . S
C2593 C2592 1.385 . S
C2593 C2594 1.389 . S
C2594 C2593 1.389 . S
C2594 C2595 1.387 . S
C2595 H2580 0.930 . S
C2595 C2590 1.390 . S
C2595 C2594 1.387 . S
H2596 C2608 0.930 . S
H2597 C2610 0.930 . S
H2598 C2611 0.930 . S
H2599 C2615 0.959 . S
H2600 C2615 0.959 . S
H2601 C2615 0.961 . S
H2602 C2616 0.960 . S
H2603 C2616 0.961 . S
H2604 C2616 0.959 . S
H2605 C2619 0.929 . S
H2606 C2620 0.931 . S
H2607 C2622 0.930 . S
C2608 H2596 0.930 . S
C2608 C2609 1.399 . S
C2608 C2613 1.399 . S
C2609 C2608 1.399 . S
C2609 C2610 1.376 . S
C2610 H2597 0.930 . S
C2610 C2609 1.376 . S
C2610 C2611 1.388 . S
C2611 H2598 0.930 . S
C2611 C2610 1.388 . S
C2611 C2612 1.390 . S
C2612 C2611 1.390 . S
C2612 C2613 1.394 . S
C2612 C2618 1.465 . S
C2613 C2608 1.399 . S
C2613 C2612 1.394 . S
C2613 C2614 1.516 . S
C2614 C2613 1.516 . S
C2614 C2615 1.502 . S
C2614 C2616 1.561 . S
C2614 C2617 1.526 . S
C2615 H2599 0.959 . S
C2615 H2600 0.959 . S
C2615 H2601 0.961 . S
C2615 C2614 1.502 . S
C2616 H2602 0.960 . S
C2616 H2603 0.961 . S
C2616 H2604 0.959 . S
C2616 C2614 1.561 . S
C2617 C2614 1.526 . S
C2617 C2618 1.396 . S
C2617 C2622 1.390 . S
C2618 C2612 1.465 . S
C2618 C2617 1.396 . S
C2618 C2619 1.399 . S
C2619 H2605 0.929 . S
C2619 C2618 1.399 . S
C2619 C2620 1.385 . S
C2620 H2606 0.931 . S
C2620 C2619 1.385 . S
C2620 C2621 1.389 . S
C2621 C2620 1.389 . S
C2621 C2622 1.387 . S
C2622 H2607 0.930 . S
C2622 C2617 1.390 . S
C2622 C2621 1.387 . S
H2623 C2635 0.930 . S
H2624 C2637 0.930 . S
H2625 C2638 0.930 . S
H2626 C2642 0.959 . S
H2627 C2642 0.959 . S
H2628 C2642 0.961 . S
H2629 C2643 0.960 . S
H2630 C2643 0.961 . S
H2631 C2643 0.959 . S
H2632 C2646 0.929 . S
H2633 C2647 0.931 . S
H2634 C2649 0.930 . S
C2635 H2623 0.930 . S
C2635 C2636 1.399 . S
C2635 C2640 1.399 . S
C2636 C2635 1.399 . S
C2636 C2637 1.376 . S
C2637 H2624 0.930 . S
C2637 C2636 1.376 . S
C2637 C2638 1.388 . S
C2638 H2625 0.930 . S
C2638 C2637 1.388 . S
C2638 C2639 1.390 . S
C2639 C2638 1.390 . S
C2639 C2640 1.394 . S
C2639 C2645 1.465 . S
C2640 C2635 1.399 . S
C2640 C2639 1.394 . S
C2640 C2641 1.516 . S
C2641 C2640 1.516 . S
C2641 C2642 1.502 . S
C2641 C2643 1.561 . S
C2641 C2644 1.526 . S
C2642 H2626 0.959 . S
C2642 H2627 0.959 . S
C2642 H2628 0.961 . S
C2642 C2641 1.502 . S
C2643 H2629 0.960 . S
C2643 H2630 0.961 . S
C2643 H2631 0.959 . S
C2643 C2641 1.561 . S
C2644 C2641 1.526 . S
C2644 C2645 1.396 . S
C2644 C2649 1.390 . S
C2645 C2639 1.465 . S
C2645 C2644 1.396 . S
C2645 C2646 1.399 . S
C2646 H2632 0.929 . S
C2646 C2645 1.399 . S
C2646 C2647 1.385 . S
C2647 H2633 0.931 . S
C2647 C2646 1.385 . S
C2647 C2648 1.389 . S
C2648 C2647 1.389 . S
C2648 C2649 1.387 . S
C2649 H2634 0.930 . S
C2649 C2644 1.390 . S
C2649 C2648 1.387 . S
H2650 C2662 0.930 . S
H2651 C2664 0.930 . S
H2652 C2665 0.930 . S
H2653 C2669 0.959 . S
H2654 C2669 0.959 . S
H2655 C2669 0.961 . S
H2656 C2670 0.960 . S
H2657 C2670 0.961 . S
H2658 C2670 0.959 . S
H2659 C2673 0.929 . S
H2660 C2674 0.931 . S
H2661 C2676 0.930 . S
C2662 H2650 0.930 . S
C2662 C2663 1.399 . S
C2662 C2667 1.399 . S
C2663 C2662 1.399 . S
C2663 C2664 1.376 . S
C2664 H2651 0.930 . S
C2664 C2663 1.376 . S
C2664 C2665 1.388 . S
C2665 H2652 0.930 . S
C2665 C2664 1.388 . S
C2665 C2666 1.390 . S
C2666 C2665 1.390 . S
C2666 C2667 1.394 . S
C2666 C2672 1.465 . S
C2667 C2662 1.399 . S
C2667 C2666 1.394 . S
C2667 C2668 1.516 . S
C2668 C2667 1.516 . S
C2668 C2669 1.502 . S
C2668 C2670 1.561 . S
C2668 C2671 1.526 . S
C2669 H2653 0.959 . S
C2669 H2654 0.959 . S
C2669 H2655 0.961 . S
C2669 C2668 1.502 . S
C2670 H2656 0.960 . S
C2670 H2657 0.961 . S
C2670 H2658 0.959 . S
C2670 C2668 1.561 . S
C2671 C2668 1.526 . S
C2671 C2672 1.396 . S
C2671 C2676 1.390 . S
C2672 C2666 1.465 . S
C2672 C2671 1.396 . S
C2672 C2673 1.399 . S
C2673 H2659 0.929 . S
C2673 C2672 1.399 . S
C2673 C2674 1.385 . S
C2674 H2660 0.931 . S
C2674 C2673 1.385 . S
C2674 C2675 1.389 . S
C2675 C2674 1.389 . S
C2675 C2676 1.387 . S
C2676 H2661 0.930 . S
C2676 C2671 1.390 . S
C2676 C2675 1.387 . S
H2677 C2689 0.930 . S
H2678 C2691 0.930 . S
H2679 C2692 0.930 . S
H2680 C2696 0.959 . S
H2681 C2696 0.959 . S
H2682 C2696 0.961 . S
H2683 C2697 0.960 . S
H2684 C2697 0.961 . S
H2685 C2697 0.959 . S
H2686 C2700 0.929 . S
H2687 C2701 0.931 . S
H2688 C2703 0.930 . S
C2689 H2677 0.930 . S
C2689 C2690 1.399 . S
C2689 C2694 1.399 . S
C2690 C2689 1.399 . S
C2690 C2691 1.376 . S
C2691 H2678 0.930 . S
C2691 C2690 1.376 . S
C2691 C2692 1.388 . S
C2692 H2679 0.930 . S
C2692 C2691 1.388 . S
C2692 C2693 1.390 . S
C2693 C2692 1.390 . S
C2693 C2694 1.394 . S
C2693 C2699 1.465 . S
C2694 C2689 1.399 . S
C2694 C2693 1.394 . S
C2694 C2695 1.516 . S
C2695 C2694 1.516 . S
C2695 C2696 1.502 . S
C2695 C2697 1.561 . S
C2695 C2698 1.526 . S
C2696 H2680 0.959 . S
C2696 H2681 0.959 . S
C2696 H2682 0.961 . S
C2696 C2695 1.502 . S
C2697 H2683 0.960 . S
C2697 H2684 0.961 . S
C2697 H2685 0.959 . S
C2697 C2695 1.561 . S
C2698 C2695 1.526 . S
C2698 C2699 1.396 . S
C2698 C2703 1.390 . S
C2699 C2693 1.465 . S
C2699 C2698 1.396 . S
C2699 C2700 1.399 . S
C2700 H2686 0.929 . S
C2700 C2699 1.399 . S
C2700 C2701 1.385 . S
C2701 H2687 0.931 . S
C2701 C2700 1.385 . S
C2701 C2702 1.389 . S
C2702 C2701 1.389 . S
C2702 C2703 1.387 . S
C2703 H2688 0.930 . S
C2703 C2698 1.390 . S
C2703 C2702 1.387 . S
H2704 C2716 0.930 . S
H2705 C2718 0.930 . S
H2706 C2719 0.930 . S
H2707 C2723 0.959 . S
H2708 C2723 0.959 . S
H2709 C2723 0.961 . S
H2710 C2724 0.960 . S
H2711 C2724 0.961 . S
H2712 C2724 0.959 . S
H2713 C2727 0.929 . S
H2714 C2728 0.931 . S
H2715 C2730 0.930 . S
C2716 H2704 0.930 . S
C2716 C2717 1.399 . S
C2716 C2721 1.399 . S
C2717 C2716 1.399 . S
C2717 C2718 1.376 . S
C2718 H2705 0.930 . S
C2718 C2717 1.376 . S
C2718 C2719 1.388 . S
C2719 H2706 0.930 . S
C2719 C2718 1.388 . S
C2719 C2720 1.390 . S
C2720 C2719 1.390 . S
C2720 C2721 1.394 . S
C2720 C2726 1.465 . S
C2721 C2716 1.399 . S
C2721 C2720 1.394 . S
C2721 C2722 1.516 . S
C2722 C2721 1.516 . S
C2722 C2723 1.502 . S
C2722 C2724 1.561 . S
C2722 C2725 1.526 . S
C2723 H2707 0.959 . S
C2723 H2708 0.959 . S
C2723 H2709 0.961 . S
C2723 C2722 1.502 . S
C2724 H2710 0.960 . S
C2724 H2711 0.961 . S
C2724 H2712 0.959 . S
C2724 C2722 1.561 . S
C2725 C2722 1.526 . S
C2725 C2726 1.396 . S
C2725 C2730 1.390 . S
C2726 C2720 1.465 . S
C2726 C2725 1.396 . S
C2726 C2727 1.399 . S
C2727 H2713 0.929 . S
C2727 C2726 1.399 . S
C2727 C2728 1.385 . S
C2728 H2714 0.931 . S
C2728 C2727 1.385 . S
C2728 C2729 1.389 . S
C2729 C2728 1.389 . S
C2729 C2730 1.387 . S
C2730 H2715 0.930 . S
C2730 C2725 1.390 . S
C2730 C2729 1.387 . S
H2731 C2743 0.930 . S
H2732 C2745 0.930 . S
H2733 C2746 0.930 . S
H2734 C2750 0.959 . S
H2735 C2750 0.959 . S
H2736 C2750 0.961 . S
H2737 C2751 0.960 . S
H2738 C2751 0.961 . S
H2739 C2751 0.959 . S
H2740 C2754 0.929 . S
H2741 C2755 0.931 . S
H2742 C2757 0.930 . S
C2743 H2731 0.930 . S
C2743 C2744 1.399 . S
C2743 C2748 1.399 . S
C2744 C2743 1.399 . S
C2744 C2745 1.376 . S
C2745 H2732 0.930 . S
C2745 C2744 1.376 . S
C2745 C2746 1.388 . S
C2746 H2733 0.930 . S
C2746 C2745 1.388 . S
C2746 C2747 1.390 . S
C2747 C2746 1.390 . S
C2747 C2748 1.394 . S
C2747 C2753 1.465 . S
C2748 C2743 1.399 . S
C2748 C2747 1.394 . S
C2748 C2749 1.516 . S
C2749 C2748 1.516 . S
C2749 C2750 1.502 . S
C2749 C2751 1.561 . S
C2749 C2752 1.526 . S
C2750 H2734 0.959 . S
C2750 H2735 0.959 . S
C2750 H2736 0.961 . S
C2750 C2749 1.502 . S
C2751 H2737 0.960 . S
C2751 H2738 0.961 . S
C2751 H2739 0.959 . S
C2751 C2749 1.561 . S
C2752 C2749 1.526 . S
C2752 C2753 1.396 . S
C2752 C2757 1.390 . S
C2753 C2747 1.465 . S
C2753 C2752 1.396 . S
C2753 C2754 1.399 . S
C2754 H2740 0.929 . S
C2754 C2753 1.399 . S
C2754 C2755 1.385 . S
C2755 H2741 0.931 . S
C2755 C2754 1.385 . S
C2755 C2756 1.389 . S
C2756 C2755 1.389 . S
C2756 C2757 1.387 . S
C2757 H2742 0.930 . S
C2757 C2752 1.390 . S
C2757 C2756 1.387 . S
H2758 C2770 0.930 . S
H2759 C2772 0.930 . S
H2760 C2773 0.930 . S
H2761 C2777 0.963 . S
H2762 C2777 0.972 . S
H2763 C2777 0.927 1_545 S
H2764 C2778 0.960 1_545 S
H2765 C2778 0.961 . S
H2766 C2778 0.959 . S
H2767 C2781 0.929 . S
H2768 C2782 0.931 . S
H2769 C2784 0.930 . S
C2770 H2758 0.930 . S
C2770 C2771 1.399 . S
C2770 C2775 1.399 1_545 S
C2771 C2770 1.399 . S
C2771 C2772 1.376 1_545 S
C2772 H2759 0.930 . S
C2772 C2771 1.376 1_565 S
C2772 C2773 1.388 . S
C2773 H2760 0.930 . S
C2773 C2772 1.388 . S
C2773 C2774 1.390 . S
C2774 C2773 1.390 . S
C2774 C2775 1.394 . S
C2774 C2780 1.465 . S
C2775 C2770 1.399 1_565 S
C2775 C2774 1.394 . S
C2775 C2776 1.516 . S
C2776 C2775 1.516 . S
C2776 C2777 1.521 . S
C2776 C2778 1.561 . S
C2776 C2779 1.526 . S
C2777 H2761 0.963 . S
C2777 H2762 0.972 . S
C2777 H2763 0.927 1_565 S
C2777 C2776 1.521 . S
C2778 H2764 0.960 1_565 S
C2778 H2765 0.961 . S
C2778 H2766 0.959 . S
C2778 C2776 1.561 . S
C2779 C2776 1.526 . S
C2779 C2780 1.396 . S
C2779 C2784 1.390 . S
C2780 C2774 1.465 . S
C2780 C2779 1.396 . S
C2780 C2781 1.399 . S
C2781 H2767 0.929 . S
C2781 C2780 1.399 . S
C2781 C2782 1.385 . S
C2782 H2768 0.931 . S
C2782 C2781 1.385 . S
C2782 C2783 1.389 . S
C2783 C2782 1.389 . S
C2783 C2784 1.387 . S
C2784 H2769 0.930 . S
C2784 C2779 1.390 . S
C2784 C2783 1.387 . S
H2785 C2797 0.930 . S
H2786 C2799 0.930 . S
H2787 C2800 0.930 . S
H2788 C2804 0.959 . S
H2789 C2804 0.959 . S
H2790 C2804 0.961 . S
H2791 C2805 0.960 . S
H2792 C2805 0.961 . S
H2793 C2805 0.959 . S
H2794 C2808 0.929 . S
H2795 C2809 0.931 . S
H2796 C2811 0.930 . S
C2797 H2785 0.930 . S
C2797 C2798 1.399 . S
C2797 C2802 1.399 . S
C2798 C2797 1.399 . S
C2798 C2799 1.376 . S
C2799 H2786 0.930 . S
C2799 C2798 1.376 . S
C2799 C2800 1.388 . S
C2800 H2787 0.930 . S
C2800 C2799 1.388 . S
C2800 C2801 1.390 . S
C2801 C2800 1.390 . S
C2801 C2802 1.394 . S
C2801 C2807 1.465 . S
C2802 C2797 1.399 . S
C2802 C2801 1.394 . S
C2802 C2803 1.516 . S
C2803 C2802 1.516 . S
C2803 C2804 1.502 . S
C2803 C2805 1.561 . S
C2803 C2806 1.526 . S
C2804 H2788 0.959 . S
C2804 H2789 0.959 . S
C2804 H2790 0.961 . S
C2804 C2803 1.502 . S
C2805 H2791 0.960 . S
C2805 H2792 0.961 . S
C2805 H2793 0.959 . S
C2805 C2803 1.561 . S
C2806 C2803 1.526 . S
C2806 C2807 1.396 . S
C2806 C2811 1.390 . S
C2807 C2801 1.465 . S
C2807 C2806 1.396 . S
C2807 C2808 1.399 . S
C2808 H2794 0.929 . S
C2808 C2807 1.399 . S
C2808 C2809 1.385 1_565 S
C2809 H2795 0.931 . S
C2809 C2808 1.385 1_545 S
C2809 C2810 1.389 . S
C2810 C2809 1.389 . S
C2810 C2811 1.387 1_545 S
C2811 H2796 0.930 . S
C2811 C2806 1.390 . S
C2811 C2810 1.387 1_565 S
H2812 C2824 0.930 . S
H2813 C2826 0.930 . S
H2814 C2827 0.930 . S
H2815 C2831 0.959 . S
H2816 C2831 0.959 . S
H2817 C2831 0.961 . S
H2818 C2832 0.960 . S
H2819 C2832 0.961 . S
H2820 C2832 0.959 . S
H2821 C2835 0.929 . S
H2822 C2836 0.931 . S
H2823 C2838 0.930 . S
C2824 H2812 0.930 . S
C2824 C2825 1.399 . S
C2824 C2829 1.399 . S
C2825 C2824 1.399 . S
C2825 C2826 1.376 . S
C2826 H2813 0.930 . S
C2826 C2825 1.376 . S
C2826 C2827 1.388 . S
C2827 H2814 0.930 . S
C2827 C2826 1.388 . S
C2827 C2828 1.390 . S
C2828 C2827 1.390 . S
C2828 C2829 1.394 . S
C2828 C2834 1.465 . S
C2829 C2824 1.399 . S
C2829 C2828 1.394 . S
C2829 C2830 1.516 . S
C2830 C2829 1.516 . S
C2830 C2831 1.502 . S
C2830 C2832 1.561 . S
C2830 C2833 1.526 . S
C2831 H2815 0.959 . S
C2831 H2816 0.959 . S
C2831 H2817 0.961 . S
C2831 C2830 1.502 . S
C2832 H2818 0.960 . S
C2832 H2819 0.961 . S
C2832 H2820 0.959 . S
C2832 C2830 1.561 . S
C2833 C2830 1.526 . S
C2833 C2834 1.396 . S
C2833 C2838 1.390 . S
C2834 C2828 1.465 . S
C2834 C2833 1.396 . S
C2834 C2835 1.399 . S
C2835 H2821 0.929 . S
C2835 C2834 1.399 . S
C2835 C2836 1.385 . S
C2836 H2822 0.931 . S
C2836 C2835 1.385 . S
C2836 C2837 1.389 . S
C2837 C2836 1.389 . S
C2837 C2838 1.387 . S
C2838 H2823 0.930 . S
C2838 C2833 1.390 . S
C2838 C2837 1.387 . S
H2839 C2851 0.930 . S
H2840 C2853 0.930 . S
H2841 C2854 0.930 . S
H2842 C2858 0.959 . S
H2843 C2858 0.959 . S
H2844 C2858 0.961 . S
H2845 C2859 0.960 . S
H2846 C2859 0.961 . S
H2847 C2859 0.959 . S
H2848 C2862 0.929 . S
H2849 C2863 0.931 1_556 S
H2850 C2865 0.930 . S
C2851 H2839 0.930 . S
C2851 C2852 1.399 . S
C2851 C2856 1.399 . S
C2852 C2851 1.399 . S
C2852 C2853 1.376 1_554 S
C2853 H2840 0.930 . S
C2853 C2852 1.376 1_556 S
C2853 C2854 1.388 . S
C2854 H2841 0.930 . S
C2854 C2853 1.388 . S
C2854 C2855 1.390 1_556 S
C2855 C2854 1.390 1_554 S
C2855 C2856 1.394 . S
C2855 C2861 1.465 . S
C2856 C2851 1.399 . S
C2856 C2855 1.394 . S
C2856 C2857 1.516 . S
C2857 C2856 1.516 . S
C2857 C2858 1.502 . S
C2857 C2859 1.561 . S
C2857 C2860 1.526 . S
C2858 H2842 0.959 . S
C2858 H2843 0.959 . S
C2858 H2844 0.961 . S
C2858 C2857 1.502 . S
C2859 H2845 0.960 . S
C2859 H2846 0.961 . S
C2859 H2847 0.959 . S
C2859 C2857 1.561 . S
C2860 C2857 1.526 . S
C2860 C2861 1.396 . S
C2860 C2865 1.390 . S
C2861 C2855 1.465 . S
C2861 C2860 1.396 . S
C2861 C2862 1.399 1_554 S
C2862 H2848 0.929 . S
C2862 C2861 1.399 1_556 S
C2862 C2863 1.385 1_556 S
C2863 H2849 0.931 1_554 S
C2863 C2862 1.385 1_554 S
C2863 C2864 1.389 . S
C2864 C2863 1.389 . S
C2864 C2865 1.387 . S
C2865 H2850 0.930 . S
C2865 C2860 1.390 . S
C2865 C2864 1.387 . S
H2866 C2878 0.930 . S
H2867 C2880 0.930 . S
H2868 C2881 0.930 . S
H2869 C2885 0.959 . S
H2870 C2885 0.959 . S
H2871 C2885 0.961 . S
H2872 C2886 0.960 . S
H2873 C2886 0.961 . S
H2874 C2886 0.959 . S
H2875 C2889 0.929 . S
H2876 C2890 0.931 . S
H2877 C2892 0.930 . S
C2878 H2866 0.930 . S
C2878 C2879 1.399 . S
C2878 C2883 1.399 . S
C2879 C2878 1.399 . S
C2879 C2880 1.376 . S
C2880 H2867 0.930 . S
C2880 C2879 1.376 . S
C2880 C2881 1.388 . S
C2881 H2868 0.930 . S
C2881 C2880 1.388 . S
C2881 C2882 1.390 . S
C2882 C2881 1.390 . S
C2882 C2883 1.394 . S
C2882 C2888 1.465 . S
C2883 C2878 1.399 . S
C2883 C2882 1.394 . S
C2883 C2884 1.516 . S
C2884 C2883 1.516 . S
C2884 C2885 1.502 . S
C2884 C2886 1.561 . S
C2884 C2887 1.526 . S
C2885 H2869 0.959 . S
C2885 H2870 0.959 . S
C2885 H2871 0.961 . S
C2885 C2884 1.502 . S
C2886 H2872 0.960 . S
C2886 H2873 0.961 . S
C2886 H2874 0.959 . S
C2886 C2884 1.561 . S
C2887 C2884 1.526 . S
C2887 C2888 1.396 . S
C2887 C2892 1.390 . S
C2888 C2882 1.465 . S
C2888 C2887 1.396 . S
C2888 C2889 1.399 . S
C2889 H2875 0.929 . S
C2889 C2888 1.399 . S
C2889 C2890 1.385 . S
C2890 H2876 0.931 . S
C2890 C2889 1.385 . S
C2890 C2891 1.389 . S
C2891 C2890 1.389 . S
C2891 C2892 1.387 . S
C2892 H2877 0.930 . S
C2892 C2887 1.390 . S
C2892 C2891 1.387 . S
H2893 C2905 0.930 . S
H2894 C2907 0.930 . S
H2895 C2908 0.930 . S
H2896 C2912 0.959 . S
H2897 C2912 0.950 1_565 S
H2898 C2912 1.004 . S
H2899 C2913 0.926 1_545 S
H2900 C2913 0.961 . S
H2901 C2913 0.959 . S
H2902 C2916 0.929 . S
H2903 C2917 0.931 . S
H2904 C2919 0.930 . S
C2905 H2893 0.930 . S
C2905 C2906 1.399 . S
C2905 C2910 1.359 1_545 S
C2906 C2905 1.399 . S
C2906 C2907 1.376 . S
C2907 H2894 0.930 . S
C2907 C2906 1.376 . S
C2907 C2908 1.388 1_545 S
C2908 H2895 0.930 . S
C2908 C2907 1.388 1_565 S
C2908 C2909 1.390 . S
C2909 C2908 1.390 . S
C2909 C2910 1.434 . S
C2909 C2915 1.465 . S
C2910 C2905 1.359 1_565 S
C2910 C2909 1.434 . S
C2910 C2911 1.526 . S
C2911 C2910 1.526 . S
C2911 C2912 1.469 1_565 S
C2911 C2913 1.561 . S
C2911 C2914 1.526 . S
C2912 H2896 0.959 . S
C2912 H2897 0.950 1_545 S
C2912 H2898 1.004 . S
C2912 C2911 1.469 1_545 S
C2913 H2899 0.926 1_565 S
C2913 H2900 0.961 . S
C2913 H2901 0.959 . S
C2913 C2911 1.561 . S
C2914 C2911 1.526 . S
C2914 C2915 1.396 . S
C2914 C2919 1.390 . S
C2915 C2909 1.465 . S
C2915 C2914 1.396 . S
C2915 C2916 1.399 . S
C2916 H2902 0.929 . S
C2916 C2915 1.399 . S
C2916 C2917 1.385 . S
C2917 H2903 0.931 . S
C2917 C2916 1.385 . S
C2917 C2918 1.389 . S
C2918 C2917 1.389 . S
C2918 C2919 1.387 . S
C2919 H2904 0.930 . S
C2919 C2914 1.390 . S
C2919 C2918 1.387 . S
H2920 C2932 0.930 . S
H2921 C2934 0.930 . S
H2922 C2935 0.930 . S
H2923 C2939 0.959 . S
H2924 C2939 0.959 . S
H2925 C2939 0.961 . S
H2926 C2940 0.960 . S
H2927 C2940 0.961 . S
H2928 C2940 0.959 . S
H2929 C2943 0.929 . S
H2930 C2944 0.931 . S
H2931 C2946 0.930 . S
C2932 H2920 0.930 . S
C2932 C2933 1.399 . S
C2932 C2937 1.399 . S
C2933 C2932 1.399 . S
C2933 C2934 1.376 . S
C2934 H2921 0.930 . S
C2934 C2933 1.376 . S
C2934 C2935 1.388 . S
C2935 H2922 0.930 . S
C2935 C2934 1.388 . S
C2935 C2936 1.390 . S
C2936 C2935 1.390 . S
C2936 C2937 1.394 . S
C2936 C2942 1.465 . S
C2937 C2932 1.399 . S
C2937 C2936 1.394 . S
C2937 C2938 1.516 . S
C2938 C2937 1.516 . S
C2938 C2939 1.502 . S
C2938 C2940 1.561 . S
C2938 C2941 1.526 . S
C2939 H2923 0.959 . S
C2939 H2924 0.959 . S
C2939 H2925 0.961 . S
C2939 C2938 1.502 . S
C2940 H2926 0.960 . S
C2940 H2927 0.961 . S
C2940 H2928 0.959 . S
C2940 C2938 1.561 . S
C2941 C2938 1.526 . S
C2941 C2942 1.396 . S
C2941 C2946 1.390 . S
C2942 C2936 1.465 . S
C2942 C2941 1.396 . S
C2942 C2943 1.399 . S
C2943 H2929 0.929 . S
C2943 C2942 1.399 . S
C2943 C2944 1.385 . S
C2944 H2930 0.931 . S
C2944 C2943 1.385 . S
C2944 C2945 1.389 . S
C2945 C2944 1.389 . S
C2945 C2946 1.387 . S
C2946 H2931 0.930 . S
C2946 C2941 1.390 . S
C2946 C2945 1.387 . S
H2947 C2959 0.930 . S
H2948 C2961 0.930 . S
H2949 C2962 0.930 . S
H2950 C2966 0.959 . S
H2951 C2966 0.959 . S
H2952 C2966 0.961 . S
H2953 C2967 0.960 . S
H2954 C2967 0.961 . S
H2955 C2967 0.959 . S
H2956 C2970 0.929 . S
H2957 C2971 0.931 . S
H2958 C2973 0.930 . S
C2959 H2947 0.930 . S
C2959 C2960 1.399 . S
C2959 C2964 1.399 . S
C2960 C2959 1.399 . S
C2960 C2961 1.376 . S
C2961 H2948 0.930 . S
C2961 C2960 1.376 . S
C2961 C2962 1.388 . S
C2962 H2949 0.930 . S
C2962 C2961 1.388 . S
C2962 C2963 1.390 . S
C2963 C2962 1.390 . S
C2963 C2964 1.394 . S
C2963 C2969 1.465 . S
C2964 C2959 1.399 . S
C2964 C2963 1.394 . S
C2964 C2965 1.516 . S
C2965 C2964 1.516 . S
C2965 C2966 1.502 . S
C2965 C2967 1.561 . S
C2965 C2968 1.526 . S
C2966 H2950 0.959 . S
C2966 H2951 0.959 . S
C2966 H2952 0.961 . S
C2966 C2965 1.502 . S
C2967 H2953 0.960 . S
C2967 H2954 0.961 . S
C2967 H2955 0.959 . S
C2967 C2965 1.561 . S
C2968 C2965 1.526 . S
C2968 C2969 1.396 . S
C2968 C2973 1.390 . S
C2969 C2963 1.465 . S
C2969 C2968 1.396 . S
C2969 C2970 1.399 . S
C2970 H2956 0.929 . S
C2970 C2969 1.399 . S
C2970 C2971 1.385 . S
C2971 H2957 0.931 . S
C2971 C2970 1.385 . S
C2971 C2972 1.389 . S
C2972 C2971 1.389 . S
C2972 C2973 1.387 . S
C2973 H2958 0.930 . S
C2973 C2968 1.390 . S
C2973 C2972 1.387 . S
H2974 C2986 0.930 . S
H2975 C2988 0.930 . S
H2976 C2989 0.930 . S
H2977 C2993 0.959 . S
H2978 C2993 0.959 . S
H2979 C2993 0.961 . S
H2980 C2994 0.960 . S
H2981 C2994 0.961 . S
H2982 C2994 0.959 . S
H2983 C2997 0.929 . S
H2984 C2998 0.931 . S
H2985 C3000 0.930 . S
C2986 H2974 0.930 . S
C2986 C2987 1.399 . S
C2986 C2991 1.399 . S
C2987 C2986 1.399 . S
C2987 C2988 1.376 . S
C2988 H2975 0.930 . S
C2988 C2987 1.376 . S
C2988 C2989 1.388 . S
C2989 H2976 0.930 . S
C2989 C2988 1.388 . S
C2989 C2990 1.390 . S
C2990 C2989 1.390 . S
C2990 C2991 1.394 . S
C2990 C2996 1.465 . S
C2991 C2986 1.399 . S
C2991 C2990 1.394 . S
C2991 C2992 1.516 . S
C2992 C2991 1.516 . S
C2992 C2993 1.502 . S
C2992 C2994 1.561 . S
C2992 C2995 1.526 . S
C2993 H2977 0.959 . S
C2993 H2978 0.959 . S
C2993 H2979 0.961 . S
C2993 C2992 1.502 . S
C2994 H2980 0.960 . S
C2994 H2981 0.961 . S
C2994 H2982 0.959 . S
C2994 C2992 1.561 . S
C2995 C2992 1.526 . S
C2995 C2996 1.396 . S
C2995 C3000 1.390 . S
C2996 C2990 1.465 . S
C2996 C2995 1.396 . S
C2996 C2997 1.399 . S
C2997 H2983 0.929 . S
C2997 C2996 1.399 . S
C2997 C2998 1.385 . S
C2998 H2984 0.931 . S
C2998 C2997 1.385 . S
C2998 C2999 1.389 . S
C2999 C2998 1.389 . S
C2999 C3000 1.387 . S
C3000 H2985 0.930 . S
C3000 C2995 1.390 . S
C3000 C2999 1.387 . S
H3001 C3013 0.930 . S
H3002 C3015 0.930 . S
H3003 C3016 0.930 . S
H3004 C3020 0.959 . S
H3005 C3020 0.959 . S
H3006 C3020 0.961 . S
H3007 C3021 0.960 . S
H3008 C3021 0.961 . S
H3009 C3021 0.959 . S
H3010 C3024 0.929 . S
H3011 C3025 0.931 . S
H3012 C3027 0.930 . S
C3013 H3001 0.930 . S
C3013 C3014 1.399 . S
C3013 C3018 1.399 . S
C3014 C3013 1.399 . S
C3014 C3015 1.376 . S
C3015 H3002 0.930 . S
C3015 C3014 1.376 . S
C3015 C3016 1.388 . S
C3016 H3003 0.930 . S
C3016 C3015 1.388 . S
C3016 C3017 1.390 . S
C3017 C3016 1.390 . S
C3017 C3018 1.394 . S
C3017 C3023 1.465 . S
C3018 C3013 1.399 . S
C3018 C3017 1.394 . S
C3018 C3019 1.516 . S
C3019 C3018 1.516 . S
C3019 C3020 1.502 . S
C3019 C3021 1.561 . S
C3019 C3022 1.526 . S
C3020 H3004 0.959 . S
C3020 H3005 0.959 . S
C3020 H3006 0.961 . S
C3020 C3019 1.502 . S
C3021 H3007 0.960 . S
C3021 H3008 0.961 . S
C3021 H3009 0.959 . S
C3021 C3019 1.561 . S
C3022 C3019 1.526 . S
C3022 C3023 1.396 . S
C3022 C3027 1.390 . S
C3023 C3017 1.465 . S
C3023 C3022 1.396 . S
C3023 C3024 1.399 . S
C3024 H3010 0.929 . S
C3024 C3023 1.399 . S
C3024 C3025 1.385 . S
C3025 H3011 0.931 . S
C3025 C3024 1.385 . S
C3025 C3026 1.389 . S
C3026 C3025 1.389 . S
C3026 C3027 1.387 . S
C3027 H3012 0.930 . S
C3027 C3022 1.390 . S
C3027 C3026 1.387 . S
H3028 C3040 0.930 . S
H3029 C3042 0.930 . S
H3030 C3043 0.930 . S
H3031 C3047 0.959 . S
H3032 C3047 0.959 . S
H3033 C3047 0.961 . S
H3034 C3048 0.960 . S
H3035 C3048 0.961 . S
H3036 C3048 0.959 . S
H3037 C3051 0.929 . S
H3038 C3052 0.931 . S
H3039 C3054 0.930 . S
C3040 H3028 0.930 . S
C3040 C3041 1.399 . S
C3040 C3045 1.399 . S
C3041 C3040 1.399 . S
C3041 C3042 1.376 . S
C3042 H3029 0.930 . S
C3042 C3041 1.376 . S
C3042 C3043 1.388 . S
C3043 H3030 0.930 . S
C3043 C3042 1.388 . S
C3043 C3044 1.390 . S
C3044 C3043 1.390 . S
C3044 C3045 1.394 . S
C3044 C3050 1.465 . S
C3045 C3040 1.399 . S
C3045 C3044 1.394 . S
C3045 C3046 1.516 . S
C3046 C3045 1.516 . S
C3046 C3047 1.502 . S
C3046 C3048 1.561 . S
C3046 C3049 1.526 . S
C3047 H3031 0.959 . S
C3047 H3032 0.959 . S
C3047 H3033 0.961 . S
C3047 C3046 1.502 . S
C3048 H3034 0.960 . S
C3048 H3035 0.961 . S
C3048 H3036 0.959 . S
C3048 C3046 1.561 . S
C3049 C3046 1.526 . S
C3049 C3050 1.396 . S
C3049 C3054 1.390 . S
C3050 C3044 1.465 . S
C3050 C3049 1.396 . S
C3050 C3051 1.399 . S
C3051 H3037 0.929 . S
C3051 C3050 1.399 . S
C3051 C3052 1.385 . S
C3052 H3038 0.931 . S
C3052 C3051 1.385 . S
C3052 C3053 1.389 . S
C3053 C3052 1.389 . S
C3053 C3054 1.387 . S
C3054 H3039 0.930 . S
C3054 C3049 1.390 . S
C3054 C3053 1.387 . S
H3055 C3067 0.930 . S
H3056 C3069 0.930 . S
H3057 C3070 0.930 . S
H3058 C3074 0.959 . S
H3059 C3074 0.959 . S
H3060 C3074 0.961 . S
H3061 C3075 0.960 . S
H3062 C3075 0.961 . S
H3063 C3075 0.959 . S
H3064 C3078 0.929 . S
H3065 C3079 0.931 . S
H3066 C3081 0.930 . S
C3067 H3055 0.930 . S
C3067 C3068 1.399 . S
C3067 C3072 1.399 . S
C3068 C3067 1.399 . S
C3068 C3069 1.376 . S
C3069 H3056 0.930 . S
C3069 C3068 1.376 . S
C3069 C3070 1.388 . S
C3070 H3057 0.930 . S
C3070 C3069 1.388 . S
C3070 C3071 1.390 . S
C3071 C3070 1.390 . S
C3071 C3072 1.394 . S
C3071 C3077 1.465 . S
C3072 C3067 1.399 . S
C3072 C3071 1.394 . S
C3072 C3073 1.516 . S
C3073 C3072 1.516 . S
C3073 C3074 1.502 . S
C3073 C3075 1.561 . S
C3073 C3076 1.526 . S
C3074 H3058 0.959 . S
C3074 H3059 0.959 . S
C3074 H3060 0.961 . S
C3074 C3073 1.502 . S
C3075 H3061 0.960 . S
C3075 H3062 0.961 . S
C3075 H3063 0.959 . S
C3075 C3073 1.561 . S
C3076 C3073 1.526 . S
C3076 C3077 1.396 . S
C3076 C3081 1.390 . S
C3077 C3071 1.465 . S
C3077 C3076 1.396 . S
C3077 C3078 1.399 . S
C3078 H3064 0.929 . S
C3078 C3077 1.399 . S
C3078 C3079 1.385 . S
C3079 H3065 0.931 . S
C3079 C3078 1.385 . S
C3079 C3080 1.389 . S
C3080 C3079 1.389 . S
C3080 C3081 1.387 . S
C3081 H3066 0.930 . S
C3081 C3076 1.390 . S
C3081 C3080 1.387 . S
H3082 C3094 0.930 . S
H3083 C3096 0.930 . S
H3084 C3097 0.930 . S
H3085 C3101 0.959 . S
H3086 C3101 0.959 . S
H3087 C3101 0.961 . S
H3088 C3102 0.960 . S
H3089 C3102 0.961 . S
H3090 C3102 0.959 . S
H3091 C3105 0.929 . S
H3092 C3106 0.931 . S
H3093 C3108 0.930 . S
C3094 H3082 0.930 . S
C3094 C3095 1.399 . S
C3094 C3099 1.399 . S
C3095 C3094 1.399 . S
C3095 C3096 1.376 . S
C3096 H3083 0.930 . S
C3096 C3095 1.376 . S
C3096 C3097 1.388 . S
C3097 H3084 0.930 . S
C3097 C3096 1.388 . S
C3097 C3098 1.390 . S
C3098 C3097 1.390 . S
C3098 C3099 1.394 . S
C3098 C3104 1.465 . S
C3099 C3094 1.399 . S
C3099 C3098 1.394 . S
C3099 C3100 1.516 . S
C3100 C3099 1.516 . S
C3100 C3101 1.502 . S
C3100 C3102 1.561 . S
C3100 C3103 1.526 . S
C3101 H3085 0.959 . S
C3101 H3086 0.959 . S
C3101 H3087 0.961 . S
C3101 C3100 1.502 . S
C3102 H3088 0.960 . S
C3102 H3089 0.961 . S
C3102 H3090 0.959 . S
C3102 C3100 1.561 . S
C3103 C3100 1.526 . S
C3103 C3104 1.396 . S
C3103 C3108 1.390 . S
C3104 C3098 1.465 . S
C3104 C3103 1.396 . S
C3104 C3105 1.399 . S
C3105 H3091 0.929 . S
C3105 C3104 1.399 . S
C3105 C3106 1.385 . S
C3106 H3092 0.931 . S
C3106 C3105 1.385 . S
C3106 C3107 1.389 . S
C3107 C3106 1.389 . S
C3107 C3108 1.387 . S
C3108 H3093 0.930 . S
C3108 C3103 1.390 . S
C3108 C3107 1.387 . S
H3109 C3121 0.930 . S
H3110 C3123 0.930 . S
H3111 C3124 0.930 . S
H3112 C3128 0.959 . S
H3113 C3128 0.959 . S
H3114 C3128 0.961 . S
H3115 C3129 0.960 . S
H3116 C3129 0.961 . S
H3117 C3129 0.959 . S
H3118 C3132 0.929 . S
H3119 C3133 0.931 . S
H3120 C3135 0.930 . S
C3121 H3109 0.930 . S
C3121 C3122 1.399 . S
C3121 C3126 1.399 . S
C3122 C3121 1.399 . S
C3122 C3123 1.376 . S
C3123 H3110 0.930 . S
C3123 C3122 1.376 . S
C3123 C3124 1.388 . S
C3124 H3111 0.930 . S
C3124 C3123 1.388 . S
C3124 C3125 1.390 . S
C3125 C3124 1.390 . S
C3125 C3126 1.394 . S
C3125 C3131 1.465 . S
C3126 C3121 1.399 . S
C3126 C3125 1.394 . S
C3126 C3127 1.516 . S
C3127 C3126 1.516 . S
C3127 C3128 1.502 . S
C3127 C3129 1.561 . S
C3127 C3130 1.526 . S
C3128 H3112 0.959 . S
C3128 H3113 0.959 . S
C3128 H3114 0.961 . S
C3128 C3127 1.502 . S
C3129 H3115 0.960 . S
C3129 H3116 0.961 . S
C3129 H3117 0.959 . S
C3129 C3127 1.561 . S
C3130 C3127 1.526 . S
C3130 C3131 1.396 . S
C3130 C3135 1.390 . S
C3131 C3125 1.465 . S
C3131 C3130 1.396 . S
C3131 C3132 1.399 . S
C3132 H3118 0.929 . S
C3132 C3131 1.399 . S
C3132 C3133 1.385 . S
C3133 H3119 0.931 . S
C3133 C3132 1.385 . S
C3133 C3134 1.389 . S
C3134 C3133 1.389 . S
C3134 C3135 1.387 . S
C3135 H3120 0.930 . S
C3135 C3130 1.390 . S
C3135 C3134 1.387 . S
H3136 C3148 0.930 . S
H3137 C3150 0.930 . S
H3138 C3151 0.930 . S
H3139 C3155 0.959 . S
H3140 C3155 0.959 . S
H3141 C3155 0.961 . S
H3142 C3156 0.960 . S
H3143 C3156 0.961 . S
H3144 C3156 0.959 . S
H3145 C3159 0.929 . S
H3146 C3160 0.931 . S
H3147 C3162 0.930 . S
C3148 H3136 0.930 . S
C3148 C3149 1.399 . S
C3148 C3153 1.399 . S
C3149 C3148 1.399 . S
C3149 C3150 1.376 . S
C3150 H3137 0.930 . S
C3150 C3149 1.376 . S
C3150 C3151 1.388 . S
C3151 H3138 0.930 . S
C3151 C3150 1.388 . S
C3151 C3152 1.390 . S
C3152 C3151 1.390 . S
C3152 C3153 1.394 . S
C3152 C3158 1.465 . S
C3153 C3148 1.399 . S
C3153 C3152 1.394 . S
C3153 C3154 1.516 . S
C3154 C3153 1.516 . S
C3154 C3155 1.502 . S
C3154 C3156 1.561 . S
C3154 C3157 1.526 . S
C3155 H3139 0.959 . S
C3155 H3140 0.959 . S
C3155 H3141 0.961 . S
C3155 C3154 1.502 . S
C3156 H3142 0.960 . S
C3156 H3143 0.961 . S
C3156 H3144 0.959 . S
C3156 C3154 1.561 . S
C3157 C3154 1.526 . S
C3157 C3158 1.396 . S
C3157 C3162 1.390 . S
C3158 C3152 1.465 . S
C3158 C3157 1.396 . S
C3158 C3159 1.399 . S
C3159 H3145 0.929 . S
C3159 C3158 1.399 . S
C3159 C3160 1.385 . S
C3160 H3146 0.931 . S
C3160 C3159 1.385 . S
C3160 C3161 1.389 . S
C3161 C3160 1.389 . S
C3161 C3162 1.387 . S
C3162 H3147 0.930 . S
C3162 C3157 1.390 . S
C3162 C3161 1.387 . S
H3163 C3175 0.930 . S
H3164 C3177 0.930 . S
H3165 C3178 0.930 . S
H3166 C3182 0.959 . S
H3167 C3182 0.959 . S
H3168 C3182 0.961 . S
H3169 C3183 0.960 . S
H3170 C3183 0.961 . S
H3171 C3183 0.959 . S
H3172 C3186 0.929 . S
H3173 C3187 0.931 . S
H3174 C3189 0.930 . S
C3175 H3163 0.930 . S
C3175 C3176 1.399 . S
C3175 C3180 1.399 . S
C3176 C3175 1.399 . S
C3176 C3177 1.376 . S
C3177 H3164 0.930 . S
C3177 C3176 1.376 . S
C3177 C3178 1.388 . S
C3178 H3165 0.930 . S
C3178 C3177 1.388 . S
C3178 C3179 1.390 . S
C3179 C3178 1.390 . S
C3179 C3180 1.394 . S
C3179 C3185 1.465 . S
C3180 C3175 1.399 . S
C3180 C3179 1.394 . S
C3180 C3181 1.516 . S
C3181 C3180 1.516 . S
C3181 C3182 1.502 . S
C3181 C3183 1.561 . S
C3181 C3184 1.526 . S
C3182 H3166 0.959 . S
C3182 H3167 0.959 . S
C3182 H3168 0.961 . S
C3182 C3181 1.502 . S
C3183 H3169 0.960 . S
C3183 H3170 0.961 . S
C3183 H3171 0.959 . S
C3183 C3181 1.561 . S
C3184 C3181 1.526 . S
C3184 C3185 1.396 . S
C3184 C3189 1.390 . S
C3185 C3179 1.465 . S
C3185 C3184 1.396 . S
C3185 C3186 1.399 . S
C3186 H3172 0.929 . S
C3186 C3185 1.399 . S
C3186 C3187 1.385 . S
C3187 H3173 0.931 . S
C3187 C3186 1.385 . S
C3187 C3188 1.389 . S
C3188 C3187 1.389 . S
C3188 C3189 1.387 . S
C3189 H3174 0.930 . S
C3189 C3184 1.390 . S
C3189 C3188 1.387 . S
H3190 C3202 0.930 . S
H3191 C3204 0.930 . S
H3192 C3205 0.930 . S
H3193 C3209 0.959 . S
H3194 C3209 0.959 . S
H3195 C3209 0.961 . S
H3196 C3210 0.960 . S
H3197 C3210 0.961 . S
H3198 C3210 0.959 . S
H3199 C3213 0.929 . S
H3200 C3214 0.931 . S
H3201 C3216 0.930 . S
C3202 H3190 0.930 . S
C3202 C3203 1.399 . S
C3202 C3207 1.399 . S
C3203 C3202 1.399 . S
C3203 C3204 1.376 . S
C3204 H3191 0.930 . S
C3204 C3203 1.376 . S
C3204 C3205 1.388 . S
C3205 H3192 0.930 . S
C3205 C3204 1.388 . S
C3205 C3206 1.390 . S
C3206 C3205 1.390 . S
C3206 C3207 1.394 . S
C3206 C3212 1.465 . S
C3207 C3202 1.399 . S
C3207 C3206 1.394 . S
C3207 C3208 1.516 . S
C3208 C3207 1.516 . S
C3208 C3209 1.502 1_455 S
C3208 C3210 1.561 . S
C3208 C3211 1.526 . S
C3209 H3193 0.959 . S
C3209 H3194 0.959 . S
C3209 H3195 0.961 . S
C3209 C3208 1.502 1_655 S
C3210 H3196 0.960 . S
C3210 H3197 0.961 . S
C3210 H3198 0.959 . S
C3210 C3208 1.561 . S
C3211 C3208 1.526 . S
C3211 C3212 1.396 . S
C3211 C3216 1.390 . S
C3212 C3206 1.465 . S
C3212 C3211 1.396 . S
C3212 C3213 1.399 . S
C3213 H3199 0.929 . S
C3213 C3212 1.399 . S
C3213 C3214 1.385 . S
C3214 H3200 0.931 . S
C3214 C3213 1.385 . S
C3214 C3215 1.389 . S
C3215 C3214 1.389 . S
C3215 C3216 1.387 . S
C3216 H3201 0.930 . S
C3216 C3211 1.390 . S
C3216 C3215 1.387 . S
H3217 C3229 0.930 . S
H3218 C3231 0.930 . S
H3219 C3232 0.930 . S
H3220 C3236 0.959 . S
H3221 C3236 0.959 . S
H3222 C3236 0.961 . S
H3223 C3237 0.960 . S
H3224 C3237 0.961 . S
H3225 C3237 0.959 . S
H3226 C3240 0.929 . S
H3227 C3241 0.931 . S
H3228 C3243 0.930 . S
C3229 H3217 0.930 . S
C3229 C3230 1.399 . S
C3229 C3234 1.399 . S
C3230 C3229 1.399 . S
C3230 C3231 1.376 . S
C3231 H3218 0.930 . S
C3231 C3230 1.376 . S
C3231 C3232 1.388 . S
C3232 H3219 0.930 . S
C3232 C3231 1.388 . S
C3232 C3233 1.390 . S
C3233 C3232 1.390 . S
C3233 C3234 1.394 . S
C3233 C3239 1.465 . S
C3234 C3229 1.399 . S
C3234 C3233 1.394 . S
C3234 C3235 1.516 . S
C3235 C3234 1.516 . S
C3235 C3236 1.502 . S
C3235 C3237 1.561 . S
C3235 C3238 1.526 . S
C3236 H3220 0.959 . S
C3236 H3221 0.959 . S
C3236 H3222 0.961 . S
C3236 C3235 1.502 . S
C3237 H3223 0.960 . S
C3237 H3224 0.961 . S
C3237 H3225 0.959 . S
C3237 C3235 1.561 . S
C3238 C3235 1.526 . S
C3238 C3239 1.396 . S
C3238 C3243 1.390 . S
C3239 C3233 1.465 . S
C3239 C3238 1.396 . S
C3239 C3240 1.399 . S
C3240 H3226 0.929 . S
C3240 C3239 1.399 . S
C3240 C3241 1.385 . S
C3241 H3227 0.931 . S
C3241 C3240 1.385 . S
C3241 C3242 1.389 . S
C3242 C3241 1.389 . S
C3242 C3243 1.387 . S
C3243 H3228 0.930 . S
C3243 C3238 1.390 . S
C3243 C3242 1.387 . S
H3244 C3256 0.930 . S
H3245 C3258 0.930 . S
H3246 C3259 0.930 . S
H3247 C3263 0.959 . S
H3248 C3263 0.959 . S
H3249 C3263 0.961 . S
H3250 C3264 0.960 . S
H3251 C3264 0.961 . S
H3252 C3264 0.959 . S
H3253 C3267 0.929 . S
H3254 C3268 0.931 . S
H3255 C3270 0.930 . S
C3256 H3244 0.930 . S
C3256 C3257 1.399 . S
C3256 C3261 1.399 . S
C3257 C3256 1.399 . S
C3257 C3258 1.376 . S
C3258 H3245 0.930 . S
C3258 C3257 1.376 . S
C3258 C3259 1.388 . S
C3259 H3246 0.930 . S
C3259 C3258 1.388 . S
C3259 C3260 1.390 . S
C3260 C3259 1.390 . S
C3260 C3261 1.394 . S
C3260 C3266 1.465 . S
C3261 C3256 1.399 . S
C3261 C3260 1.394 . S
C3261 C3262 1.516 . S
C3262 C3261 1.516 . S
C3262 C3263 1.502 . S
C3262 C3264 1.561 . S
C3262 C3265 1.526 . S
C3263 H3247 0.959 . S
C3263 H3248 0.959 . S
C3263 H3249 0.961 . S
C3263 C3262 1.502 . S
C3264 H3250 0.960 . S
C3264 H3251 0.961 . S
C3264 H3252 0.959 . S
C3264 C3262 1.561 . S
C3265 C3262 1.526 . S
C3265 C3266 1.396 . S
C3265 C3270 1.390 . S
C3266 C3260 1.465 . S
C3266 C3265 1.396 . S
C3266 C3267 1.399 . S
C3267 H3253 0.929 . S
C3267 C3266 1.399 . S
C3267 C3268 1.385 . S
C3268 H3254 0.931 . S
C3268 C3267 1.385 . S
C3268 C3269 1.389 . S
C3269 C3268 1.389 . S
C3269 C3270 1.387 . S
C3270 H3255 0.930 . S
C3270 C3265 1.390 . S
C3270 C3269 1.387 . S
H3271 C3283 0.930 . S
H3272 C3285 0.930 . S
H3273 C3286 0.930 . S
H3274 C3290 0.959 . S
H3275 C3290 0.959 . S
H3276 C3290 0.961 . S
H3277 C3291 0.960 . S
H3278 C3291 0.961 . S
H3279 C3291 0.959 . S
H3280 C3294 0.929 . S
H3281 C3295 0.931 . S
H3282 C3297 0.930 . S
C3283 H3271 0.930 . S
C3283 C3284 1.399 . S
C3283 C3288 1.399 . S
C3284 C3283 1.399 . S
C3284 C3285 1.376 . S
C3285 H3272 0.930 . S
C3285 C3284 1.376 . S
C3285 C3286 1.388 . S
C3286 H3273 0.930 . S
C3286 C3285 1.388 . S
C3286 C3287 1.390 . S
C3287 C3286 1.390 . S
C3287 C3288 1.394 . S
C3287 C3293 1.465 . S
C3288 C3283 1.399 . S
C3288 C3287 1.394 . S
C3288 C3289 1.516 . S
C3289 C3288 1.516 . S
C3289 C3290 1.502 . S
C3289 C3291 1.561 . S
C3289 C3292 1.526 . S
C3290 H3274 0.959 . S
C3290 H3275 0.959 . S
C3290 H3276 0.961 . S
C3290 C3289 1.502 . S
C3291 H3277 0.960 . S
C3291 H3278 0.961 . S
C3291 H3279 0.959 . S
C3291 C3289 1.561 . S
C3292 C3289 1.526 . S
C3292 C3293 1.396 . S
C3292 C3297 1.390 . S
C3293 C3287 1.465 . S
C3293 C3292 1.396 . S
C3293 C3294 1.399 . S
C3294 H3280 0.929 . S
C3294 C3293 1.399 . S
C3294 C3295 1.385 . S
C3295 H3281 0.931 . S
C3295 C3294 1.385 . S
C3295 C3296 1.389 . S
C3296 C3295 1.389 . S
C3296 C3297 1.387 . S
C3297 H3282 0.930 . S
C3297 C3292 1.390 . S
C3297 C3296 1.387 . S
H3298 C3310 0.930 . S
H3299 C3312 0.930 . S
H3300 C3313 0.930 . S
H3301 C3317 0.959 . S
H3302 C3317 0.959 . S
H3303 C3317 0.961 . S
H3304 C3318 0.960 . S
H3305 C3318 0.961 . S
H3306 C3318 0.959 . S
H3307 C3321 0.929 . S
H3308 C3322 0.931 . S
H3309 C3324 0.930 1_655 S
C3310 H3298 0.930 . S
C3310 C3311 1.399 . S
C3310 C3315 1.399 . S
C3311 C3310 1.399 . S
C3311 C3312 1.376 . S
C3312 H3299 0.930 . S
C3312 C3311 1.376 . S
C3312 C3313 1.388 . S
C3313 H3300 0.930 . S
C3313 C3312 1.388 . S
C3313 C3314 1.390 . S
C3314 C3313 1.390 . S
C3314 C3315 1.394 . S
C3314 C3320 1.465 . S
C3315 C3310 1.399 . S
C3315 C3314 1.394 . S
C3315 C3316 1.516 . S
C3316 C3315 1.516 . S
C3316 C3317 1.502 1_455 S
C3316 C3318 1.561 . S
C3316 C3319 1.526 . S
C3317 H3301 0.959 . S
C3317 H3302 0.959 . S
C3317 H3303 0.961 . S
C3317 C3316 1.502 1_655 S
C3318 H3304 0.960 . S
C3318 H3305 0.961 . S
C3318 H3306 0.959 . S
C3318 C3316 1.561 . S
C3319 C3316 1.526 . S
C3319 C3320 1.396 . S
C3319 C3324 1.390 . S
C3320 C3314 1.465 . S
C3320 C3319 1.396 . S
C3320 C3321 1.399 . S
C3321 H3307 0.929 . S
C3321 C3320 1.399 . S
C3321 C3322 1.385 . S
C3322 H3308 0.931 . S
C3322 C3321 1.385 . S
C3322 C3323 1.389 . S
C3323 C3322 1.389 . S
C3323 C3324 1.387 . S
C3324 H3309 0.930 1_455 S
C3324 C3319 1.390 . S
C3324 C3323 1.387 . S
H3325 C3337 0.930 . S
H3326 C3339 0.930 . S
H3327 C3340 0.930 . S
H3328 C3344 0.959 . S
H3329 C3344 0.959 . S
H3330 C3344 0.961 . S
H3331 C3345 0.960 . S
H3332 C3345 0.961 . S
H3333 C3345 0.959 . S
H3334 C3348 0.929 . S
H3335 C3349 0.931 . S
H3336 C3351 0.930 . S
C3337 H3325 0.930 . S
C3337 C3338 1.399 . S
C3337 C3342 1.399 . S
C3338 C3337 1.399 . S
C3338 C3339 1.376 . S
C3339 H3326 0.930 . S
C3339 C3338 1.376 . S
C3339 C3340 1.388 . S
C3340 H3327 0.930 . S
C3340 C3339 1.388 . S
C3340 C3341 1.390 . S
C3341 C3340 1.390 . S
C3341 C3342 1.394 . S
C3341 C3347 1.465 . S
C3342 C3337 1.399 . S
C3342 C3341 1.394 . S
C3342 C3343 1.516 . S
C3343 C3342 1.516 . S
C3343 C3344 1.502 . S
C3343 C3345 1.561 . S
C3343 C3346 1.526 . S
C3344 H3328 0.959 . S
C3344 H3329 0.959 . S
C3344 H3330 0.961 . S
C3344 C3343 1.502 . S
C3345 H3331 0.960 . S
C3345 H3332 0.961 . S
C3345 H3333 0.959 . S
C3345 C3343 1.561 . S
C3346 C3343 1.526 . S
C3346 C3347 1.396 . S
C3346 C3351 1.390 . S
C3347 C3341 1.465 . S
C3347 C3346 1.396 . S
C3347 C3348 1.399 . S
C3348 H3334 0.929 . S
C3348 C3347 1.399 . S
C3348 C3349 1.385 . S
C3349 H3335 0.931 . S
C3349 C3348 1.385 . S
C3349 C3350 1.389 . S
C3350 C3349 1.389 . S
C3350 C3351 1.387 . S
C3351 H3336 0.930 . S
C3351 C3346 1.390 . S
C3351 C3350 1.387 . S
H3352 C3364 0.930 . S
H3353 C3366 0.930 . S
H3354 C3367 0.930 . S
H3355 C3371 0.959 . S
H3356 C3371 0.959 . S
H3357 C3371 0.961 . S
H3358 C3372 0.960 . S
H3359 C3372 0.961 . S
H3360 C3372 0.959 . S
H3361 C3375 0.929 . S
H3362 C3376 0.931 . S
H3363 C3378 0.930 . S
C3364 H3352 0.930 . S
C3364 C3365 1.399 . S
C3364 C3369 1.399 . S
C3365 C3364 1.399 . S
C3365 C3366 1.376 . S
C3366 H3353 0.930 . S
C3366 C3365 1.376 . S
C3366 C3367 1.388 . S
C3367 H3354 0.930 . S
C3367 C3366 1.388 . S
C3367 C3368 1.390 . S
C3368 C3367 1.390 . S
C3368 C3369 1.394 . S
C3368 C3374 1.465 . S
C3369 C3364 1.399 . S
C3369 C3368 1.394 . S
C3369 C3370 1.516 . S
C3370 C3369 1.516 . S
C3370 C3371 1.502 . S
C3370 C3372 1.561 . S
C3370 C3373 1.526 . S
C3371 H3355 0.959 . S
C3371 H3356 0.959 . S
C3371 H3357 0.961 . S
C3371 C3370 1.502 . S
C3372 H3358 0.960 . S
C3372 H3359 0.961 . S
C3372 H3360 0.959 . S
C3372 C3370 1.561 . S
C3373 C3370 1.526 . S
C3373 C3374 1.396 . S
C3373 C3378 1.390 . S
C3374 C3368 1.465 . S
C3374 C3373 1.396 . S
C3374 C3375 1.399 . S
C3375 H3361 0.929 . S
C3375 C3374 1.399 . S
C3375 C3376 1.385 . S
C3376 H3362 0.931 . S
C3376 C3375 1.385 . S
C3376 C3377 1.389 . S
C3377 C3376 1.389 . S
C3377 C3378 1.387 . S
C3378 H3363 0.930 . S
C3378 C3373 1.390 . S
C3378 C3377 1.387 . S
H3379 C3391 0.930 . S
H3380 C3393 0.930 . S
H3381 C3394 0.930 . S
H3382 C3398 0.959 . S
H3383 C3398 0.959 . S
H3384 C3398 0.961 . S
H3385 C3399 0.960 . S
H3386 C3399 0.961 . S
H3387 C3399 0.959 . S
H3388 C3402 0.929 . S
H3389 C3403 0.931 . S
H3390 C3405 0.930 . S
C3391 H3379 0.930 . S
C3391 C3392 1.399 . S
C3391 C3396 1.399 . S
C3392 C3391 1.399 . S
C3392 C3393 1.376 . S
C3393 H3380 0.930 . S
C3393 C3392 1.376 . S
C3393 C3394 1.388 . S
C3394 H3381 0.930 . S
C3394 C3393 1.388 . S
C3394 C3395 1.390 . S
C3395 C3394 1.390 . S
C3395 C3396 1.394 . S
C3395 C3401 1.465 . S
C3396 C3391 1.399 . S
C3396 C3395 1.394 . S
C3396 C3397 1.516 . S
C3397 C3396 1.516 . S
C3397 C3398 1.502 . S
C3397 C3399 1.561 . S
C3397 C3400 1.526 . S
C3398 H3382 0.959 . S
C3398 H3383 0.959 . S
C3398 H3384 0.961 . S
C3398 C3397 1.502 . S
C3399 H3385 0.960 . S
C3399 H3386 0.961 . S
C3399 H3387 0.959 . S
C3399 C3397 1.561 . S
C3400 C3397 1.526 . S
C3400 C3401 1.396 . S
C3400 C3405 1.390 . S
C3401 C3395 1.465 . S
C3401 C3400 1.396 . S
C3401 C3402 1.399 1_565 S
C3402 H3388 0.929 . S
C3402 C3401 1.399 1_545 S
C3402 C3403 1.385 . S
C3403 H3389 0.931 . S
C3403 C3402 1.385 . S
C3403 C3404 1.389 . S
C3404 C3403 1.389 . S
C3404 C3405 1.387 1_545 S
C3405 H3390 0.930 . S
C3405 C3400 1.390 . S
C3405 C3404 1.387 1_565 S
H3406 C3418 0.930 . S
H3407 C3420 0.930 . S
H3408 C3421 0.930 . S
H3409 C3425 0.959 . S
H3410 C3425 0.959 . S
H3411 C3425 0.961 . S
H3412 C3426 0.960 . S
H3413 C3426 0.961 . S
H3414 C3426 0.959 . S
H3415 C3429 0.929 . S
H3416 C3430 0.931 . S
H3417 C3432 0.930 . S
C3418 H3406 0.930 . S
C3418 C3419 1.399 . S
C3418 C3423 1.399 . S
C3419 C3418 1.399 . S
C3419 C3420 1.376 . S
C3420 H3407 0.930 . S
C3420 C3419 1.376 . S
C3420 C3421 1.388 . S
C3421 H3408 0.930 . S
C3421 C3420 1.388 . S
C3421 C3422 1.390 . S
C3422 C3421 1.390 . S
C3422 C3423 1.394 . S
C3422 C3428 1.465 . S
C3423 C3418 1.399 . S
C3423 C3422 1.394 . S
C3423 C3424 1.516 . S
C3424 C3423 1.516 . S
C3424 C3425 1.502 . S
C3424 C3426 1.561 . S
C3424 C3427 1.526 . S
C3425 H3409 0.959 . S
C3425 H3410 0.959 . S
C3425 H3411 0.961 . S
C3425 C3424 1.502 . S
C3426 H3412 0.960 . S
C3426 H3413 0.961 . S
C3426 H3414 0.959 . S
C3426 C3424 1.561 . S
C3427 C3424 1.526 . S
C3427 C3428 1.396 . S
C3427 C3432 1.390 . S
C3428 C3422 1.465 . S
C3428 C3427 1.396 . S
C3428 C3429 1.399 . S
C3429 H3415 0.929 . S
C3429 C3428 1.399 . S
C3429 C3430 1.385 . S
C3430 H3416 0.931 . S
C3430 C3429 1.385 . S
C3430 C3431 1.389 . S
C3431 C3430 1.389 . S
C3431 C3432 1.387 . S
C3432 H3417 0.930 . S
C3432 C3427 1.390 . S
C3432 C3431 1.387 . S
H3433 C3445 0.930 . S
H3434 C3447 0.930 . S
H3435 C3448 0.930 . S
H3436 C3452 0.959 . S
H3437 C3452 0.959 . S
H3438 C3452 0.961 . S
H3439 C3453 0.960 . S
H3440 C3453 0.961 . S
H3441 C3453 0.959 . S
H3442 C3456 0.929 . S
H3443 C3457 0.931 . S
H3444 C3459 0.930 . S
C3445 H3433 0.930 . S
C3445 C3446 1.399 . S
C3445 C3450 1.399 . S
C3446 C3445 1.399 . S
C3446 C3447 1.376 1_556 S
C3447 H3434 0.930 . S
C3447 C3446 1.376 1_554 S
C3447 C3448 1.388 . S
C3448 H3435 0.930 . S
C3448 C3447 1.388 . S
C3448 C3449 1.390 . S
C3449 C3448 1.390 . S
C3449 C3450 1.394 1_554 S
C3449 C3455 1.465 . S
C3450 C3445 1.399 . S
C3450 C3449 1.394 1_556 S
C3450 C3451 1.516 . S
C3451 C3450 1.516 . S
C3451 C3452 1.502 . S
C3451 C3453 1.561 . S
C3451 C3454 1.526 . S
C3452 H3436 0.959 . S
C3452 H3437 0.959 . S
C3452 H3438 0.961 . S
C3452 C3451 1.502 . S
C3453 H3439 0.960 . S
C3453 H3440 0.961 . S
C3453 H3441 0.959 . S
C3453 C3451 1.561 . S
C3454 C3451 1.526 . S
C3454 C3455 1.396 1_556 S
C3454 C3459 1.390 . S
C3455 C3449 1.465 . S
C3455 C3454 1.396 1_554 S
C3455 C3456 1.399 . S
C3456 H3442 0.929 . S
C3456 C3455 1.399 . S
C3456 C3457 1.385 . S
C3457 H3443 0.931 . S
C3457 C3456 1.385 . S
C3457 C3458 1.389 . S
C3458 C3457 1.389 . S
C3458 C3459 1.387 1_554 S
C3459 H3444 0.930 . S
C3459 C3454 1.390 . S
C3459 C3458 1.387 1_556 S
H3460 C3472 0.930 . S
H3461 C3474 0.930 . S
H3462 C3475 0.930 . S
H3463 C3479 0.959 . S
H3464 C3479 0.959 . S
H3465 C3479 0.961 . S
H3466 C3480 0.960 . S
H3467 C3480 0.961 . S
H3468 C3480 0.959 . S
H3469 C3483 0.929 . S
H3470 C3484 0.931 . S
H3471 C3486 0.930 . S
C3472 H3460 0.930 . S
C3472 C3473 1.399 . S
C3472 C3477 1.399 . S
C3473 C3472 1.399 . S
C3473 C3474 1.376 . S
C3474 H3461 0.930 . S
C3474 C3473 1.376 . S
C3474 C3475 1.388 . S
C3475 H3462 0.930 . S
C3475 C3474 1.388 . S
C3475 C3476 1.390 . S
C3476 C3475 1.390 . S
C3476 C3477 1.394 . S
C3476 C3482 1.465 . S
C3477 C3472 1.399 . S
C3477 C3476 1.394 . S
C3477 C3478 1.516 . S
C3478 C3477 1.516 . S
C3478 C3479 1.502 . S
C3478 C3480 1.561 . S
C3478 C3481 1.526 . S
C3479 H3463 0.959 . S
C3479 H3464 0.959 . S
C3479 H3465 0.961 . S
C3479 C3478 1.502 . S
C3480 H3466 0.960 . S
C3480 H3467 0.961 . S
C3480 H3468 0.959 . S
C3480 C3478 1.561 . S
C3481 C3478 1.526 . S
C3481 C3482 1.396 . S
C3481 C3486 1.390 . S
C3482 C3476 1.465 . S
C3482 C3481 1.396 . S
C3482 C3483 1.399 . S
C3483 H3469 0.929 . S
C3483 C3482 1.399 . S
C3483 C3484 1.385 . S
C3484 H3470 0.931 . S
C3484 C3483 1.385 . S
C3484 C3485 1.389 . S
C3485 C3484 1.389 . S
C3485 C3486 1.387 . S
C3486 H3471 0.930 . S
C3486 C3481 1.390 . S
C3486 C3485 1.387 . S
H3487 C3499 0.930 . S
H3488 C3501 0.930 1_556 S
H3489 C3502 0.930 . S
H3490 C3506 0.959 . S
H3491 C3506 0.959 . S
H3492 C3506 0.961 . S
H3493 C3507 0.960 . S
H3494 C3507 0.961 . S
H3495 C3507 0.959 . S
H3496 C3510 0.929 . S
H3497 C3511 0.931 . S
H3498 C3513 0.930 . S
C3499 H3487 0.930 . S
C3499 C3500 1.399 . S
C3499 C3504 1.399 . S
C3500 C3499 1.399 . S
C3500 C3501 1.376 . S
C3501 H3488 0.930 1_554 S
C3501 C3500 1.376 . S
C3501 C3502 1.388 1_554 S
C3502 H3489 0.930 . S
C3502 C3501 1.388 1_556 S
C3502 C3503 1.390 1_556 S
C3503 C3502 1.390 1_554 S
C3503 C3504 1.394 . S
C3503 C3509 1.465 . S
C3504 C3499 1.399 . S
C3504 C3503 1.394 . S
C3504 C3505 1.516 . S
C3505 C3504 1.516 . S
C3505 C3506 1.502 . S
C3505 C3507 1.561 . S
C3505 C3508 1.526 . S
C3506 H3490 0.959 . S
C3506 H3491 0.959 . S
C3506 H3492 0.961 . S
C3506 C3505 1.502 . S
C3507 H3493 0.960 . S
C3507 H3494 0.961 . S
C3507 H3495 0.959 . S
C3507 C3505 1.561 . S
C3508 C3505 1.526 . S
C3508 C3509 1.396 . S
C3508 C3513 1.390 . S
C3509 C3503 1.465 . S
C3509 C3508 1.396 . S
C3509 C3510 1.399 1_554 S
C3510 H3496 0.929 . S
C3510 C3509 1.399 1_556 S
C3510 C3511 1.385 . S
C3511 H3497 0.931 . S
C3511 C3510 1.385 . S
C3511 C3512 1.389 1_556 S
C3512 C3511 1.389 1_554 S
C3512 C3513 1.387 . S
C3513 H3498 0.930 . S
C3513 C3508 1.390 . S
C3513 C3512 1.387 . S
H3514 C3526 0.930 . S
H3515 C3528 0.930 . S
H3516 C3529 0.930 . S
H3517 C3533 0.959 . S
H3518 C3533 0.959 . S
H3519 C3533 0.961 . S
H3520 C3534 0.960 . S
H3521 C3534 0.961 . S
H3522 C3534 0.959 . S
H3523 C3537 0.929 . S
H3524 C3538 0.931 . S
H3525 C3540 0.930 . S
C3526 H3514 0.930 . S
C3526 C3527 1.399 . S
C3526 C3531 1.399 . S
C3527 C3526 1.399 . S
C3527 C3528 1.376 . S
C3528 H3515 0.930 . S
C3528 C3527 1.376 . S
C3528 C3529 1.388 . S
C3529 H3516 0.930 . S
C3529 C3528 1.388 . S
C3529 C3530 1.390 . S
C3530 C3529 1.390 . S
C3530 C3531 1.394 . S
C3530 C3536 1.465 . S
C3531 C3526 1.399 . S
C3531 C3530 1.394 . S
C3531 C3532 1.516 . S
C3532 C3531 1.516 . S
C3532 C3533 1.502 . S
C3532 C3534 1.561 . S
C3532 C3535 1.526 . S
C3533 H3517 0.959 . S
C3533 H3518 0.959 . S
C3533 H3519 0.961 . S
C3533 C3532 1.502 . S
C3534 H3520 0.960 . S
C3534 H3521 0.961 . S
C3534 H3522 0.959 . S
C3534 C3532 1.561 . S
C3535 C3532 1.526 . S
C3535 C3536 1.396 . S
C3535 C3540 1.390 . S
C3536 C3530 1.465 . S
C3536 C3535 1.396 . S
C3536 C3537 1.399 . S
C3537 H3523 0.929 . S
C3537 C3536 1.399 . S
C3537 C3538 1.385 . S
C3538 H3524 0.931 . S
C3538 C3537 1.385 . S
C3538 C3539 1.389 . S
C3539 C3538 1.389 . S
C3539 C3540 1.387 . S
C3540 H3525 0.930 . S
C3540 C3535 1.390 . S
C3540 C3539 1.387 . S
H3541 C3553 0.930 . S
H3542 C3555 0.930 . S
H3543 C3556 0.930 . S
H3544 C3560 0.959 . S
H3545 C3560 0.959 . S
H3546 C3560 0.961 . S
H3547 C3561 0.960 . S
H3548 C3561 0.961 . S
H3549 C3561 0.959 . S
H3550 C3564 0.929 . S
H3551 C3565 0.931 . S
H3552 C3567 0.930 . S
C3553 H3541 0.930 . S
C3553 C3554 1.399 . S
C3553 C3558 1.399 . S
C3554 C3553 1.399 . S
C3554 C3555 1.376 . S
C3555 H3542 0.930 . S
C3555 C3554 1.376 . S
C3555 C3556 1.388 . S
C3556 H3543 0.930 . S
C3556 C3555 1.388 . S
C3556 C3557 1.390 . S
C3557 C3556 1.390 . S
C3557 C3558 1.394 . S
C3557 C3563 1.465 . S
C3558 C3553 1.399 . S
C3558 C3557 1.394 . S
C3558 C3559 1.516 . S
C3559 C3558 1.516 . S
C3559 C3560 1.502 . S
C3559 C3561 1.561 . S
C3559 C3562 1.526 . S
C3560 H3544 0.959 . S
C3560 H3545 0.959 . S
C3560 H3546 0.961 . S
C3560 C3559 1.502 . S
C3561 H3547 0.960 . S
C3561 H3548 0.961 . S
C3561 H3549 0.959 . S
C3561 C3559 1.561 . S
C3562 C3559 1.526 . S
C3562 C3563 1.396 . S
C3562 C3567 1.390 . S
C3563 C3557 1.465 . S
C3563 C3562 1.396 . S
C3563 C3564 1.399 . S
C3564 H3550 0.929 . S
C3564 C3563 1.399 . S
C3564 C3565 1.385 . S
C3565 H3551 0.931 . S
C3565 C3564 1.385 . S
C3565 C3566 1.389 . S
C3566 C3565 1.389 . S
C3566 C3567 1.387 . S
C3567 H3552 0.930 . S
C3567 C3562 1.390 . S
C3567 C3566 1.387 . S
C989 C111 1.679 1_455 S
C1001 C358 1.771 . S
C1016 C64 1.120 . S
C1028 C378 1.275 . S
C1043 C77 0.599 . S
C1055 C425 0.569 . S
C1082 C482 0.841 . S
C1070 C95 0.920 . S
C1097 C25 2.381 . S
C1109 C499 2.376 . S
C1136 C558 1.822 . S
C1124 C36 1.789 . S
C1163 C591 2.671 . S
C1151 C50 2.546 . S
C1178 C11 2.404 . S
C1190 C638 2.377 . S
C1217 C351 1.469 . S
C1205 C237 1.359 1_545 S
C1232 C245 1.343 . S
C1244 C379 1.325 . S
C1271 C418 0.484 . S
C1259 C279 0.684 1_565 S
C1298 C478 2.069 . S
C1286 C175 2.029 . S
C1313 C231 0.383 . S
C1325 C505 0.269 . S
C1352 C551 2.194 . S
C1340 C251 2.123 . S
C1379 C602 0.435 . S
C1367 C273 0.662 1_565 S
C1406 C631 2.243 . S
C1394 C181 2.095 . S
C1433 C362 1.725 1_565 S
C1421 C165 1.781 . S
C1448 C288 2.120 . S
C1460 C658 2.158 . S
C1487 C722 1.192 . S
C1475 C333 1.218 . S
C1514 C758 1.375 1_655 S
C1502 C316 1.393 . S
C1529 C123 1.327 . S
C1541 C642 1.338 . S
C1556 C137 2.448 . S
C1568 C419 2.443 . S
C1583 C330 1.265 . S
C1595 C791 1.377 . S
C1622 C825 0.422 . S
C1610 C302 0.354 . S
C1649 C339 1.864 . S
C1637 C63 1.855 . S
C1676 C831 1.310 . S
C1664 C106 1.290 . S
C1691 C97 0.707 . S
C1703 C442 0.707 . S
C1718 C81 0.873 . S
C1730 C785 1.012 . S
C1757 C518 2.547 . S
C1745 C13 2.440 . S
C1772 C55 1.747 . S
C1784 C699 1.834 . S
C1811 C578 2.654 1_556 S
C1799 C35 2.632 . S
C1838 C859 2.533 . S
C1826 C21 2.544 1_655 S
C1865 C338 1.542 . S
C1853 C147 1.558 . S
C1892 C838 1.531 . S
C1880 C321 1.471 . S
C1907 C119 0.605 . S
C1919 C431 0.600 . S
C1934 C293 2.060 . S
C1946 C779 2.192 . S
C1961 C153 0.382 . S
C1973 C522 0.380 . S
C2000 C698 2.316 . S
C1988 C315 2.319 . S
C2015 C125 0.538 . S
C2027 C585 0.642 . S
C2042 C287 2.367 . S
C2054 C858 2.363 . S
C2069 C193 1.738 . S
C2081 C345 1.662 . S
C2096 C176 2.153 . S
C2108 C671 2.204 . S
C2123 C263 1.160 . S
C2135 C545 1.304 . S
C2150 C246 1.379 . S
C2162 C739 1.442 . S
C2189 C865 1.308 . S
C2177 C277 1.216 . S
C2204 C221 2.525 . S
C2216 C438 2.537 1_565 S
C2243 C458 1.458 . S
C2231 C260 1.456 . S
C2270 C402 0.568 . S
C2258 C204 0.431 . S
C2285 C83 1.742 . S
C2297 C918 1.724 . S
C2324 C818 1.261 . S
C2312 C92 1.087 . S
C2339 C105 0.591 . S
C2351 C945 0.620 . S
C2366 C67 0.939 . S
C2378 C802 0.849 . S
C2393 C53 2.378 . S
C2405 C659 2.368 . S
C2432 C718 1.837 . S
C2420 C8 1.807 1_655 S
C2459 C751 2.673 . S
C2447 C22 2.550 . S
C2486 C878 2.353 . S
C2474 C39 2.391 . S
C2513 C911 1.462 . S
C2501 C265 1.333 . S
C2528 C189 1.341 . S
C2540 C819 1.347 . S
C2567 C938 0.566 . S
C2555 C209 0.533 . S
C2594 C798 2.063 . S
C2582 C217 2.040 . S
C2621 C665 0.456 . S
C2609 C259 0.285 . S
C2636 C195 2.146 . S
C2648 C711 2.176 . S
C2675 C762 0.436 . S
C2663 C203 0.655 . S
C2690 C223 2.131 . S
C2702 C871 2.248 . S
C2729 C922 1.689 . S
C2717 C319 1.780 . S
C2744 C134 2.121 . S
C2756 C498 2.163 . S
C2783 C562 1.179 . S
C2771 C151 1.222 . S
C2810 C598 1.375 . S
C2798 C162 1.393 . S
C2837 C882 1.318 . S
C2825 C305 1.279 . S
C2852 C291 2.446 . S
C2864 C939 2.443 1_655 S
C2891 C471 1.385 . S
C2879 C148 1.286 . S
C2918 C385 0.271 . S
C2906 C120 0.398 . S
C2933 C91 1.835 . S
C2945 C899 1.881 . S
C2972 C391 1.269 . S
C2960 C78 1.320 . S
C2987 C69 0.737 . S
C2999 C962 0.726 . S
C3014 C109 0.994 . S
C3026 C465 0.869 . S
C3041 C41 2.440 . S
C3053 C678 2.546 . S
C3080 C539 1.844 . S
C3068 C27 1.725 . S
C3095 C7 2.633 . S
C3107 C738 2.640 . S
C3122 C49 2.537 . S
C3134 C619 2.535 . S
C3161 C898 1.558 . S
C3149 C329 1.510 . S
C3176 C167 1.491 . S
C3188 C398 1.521 . S
C3215 C951 0.507 . S
C3203 C301 0.689 . S
C3230 C139 2.017 . S
C3242 C459 2.191 . S
C3257 C335 0.379 . S
C3269 C682 0.380 . S
C3296 C538 2.294 . S
C3284 C161 2.326 1_556 S
C3311 C307 0.580 . S
C3323 C745 0.600 . S
C3350 C618 2.344 . S
C3338 C133 2.351 . S
C3377 C905 1.732 . S
C3365 C249 1.702 . S
C3404 C511 2.178 1_655 S
C3392 C218 2.182 . S
C3419 C235 1.226 . S
C3431 C705 1.230 . S
C3458 C579 1.449 . S
C3446 C190 1.399 . S
C3473 C207 1.299 . S
C3485 C625 1.225 . S
C3500 C179 2.530 . S
C3512 C958 2.539 . S
C3539 C778 1.487 . S
C3527 C232 1.410 . S
C3566 C842 0.570 . S
C3554 C274 0.436 . S
