# Generated by pormake.
# Topology anh, (6,3)-cn, num edge types: 1
# Building blocks:
#     Node 0, Type 0, BuildingBlock: MIFKUJ_clean_sbu_0, # of connection points: 6
#     Node 1, Type 0, BuildingBlock: MIFKUJ_clean_sbu_0, # of connection points: 6
#     Node 2, Type 0, BuildingBlock: MIFKUJ_clean_sbu_0, # of connection points: 6
#     Node 3, Type 1, BuildingBlock: OLANEW_clean_sbu_2, # of connection points: 3
#     Node 4, Type 1, BuildingBlock: OLANEW_clean_sbu_2, # of connection points: 3
#     Node 5, Type 1, BuildingBlock: OLANEW_clean_sbu_2, # of connection points: 3
#     Node 6, Type 1, BuildingBlock: OLANEW_clean_sbu_2, # of connection points: 3
#     Node 7, Type 1, BuildingBlock: OLANEW_clean_sbu_2, # of connection points: 3
#     Node 8, Type 1, BuildingBlock: OLANEW_clean_sbu_2, # of connection points: 3
#     Edge 9, Type (0, 1), BuildingBlock: EZIPEK_clean_linker_0, # of connection points: 2
#     Edge 10, Type (0, 1), BuildingBlock: EZIPEK_clean_linker_0, # of connection points: 2
#     Edge 11, Type (0, 1), BuildingBlock: EZIPEK_clean_linker_0, # of connection points: 2
#     Edge 12, Type (0, 1), BuildingBlock: EZIPEK_clean_linker_0, # of connection points: 2
#     Edge 13, Type (0, 1), BuildingBlock: EZIPEK_clean_linker_0, # of connection points: 2
#     Edge 14, Type (0, 1), BuildingBlock: EZIPEK_clean_linker_0, # of connection points: 2
#     Edge 15, Type (0, 1), BuildingBlock: EZIPEK_clean_linker_0, # of connection points: 2
#     Edge 16, Type (0, 1), BuildingBlock: EZIPEK_clean_linker_0, # of connection points: 2
#     Edge 17, Type (0, 1), BuildingBlock: EZIPEK_clean_linker_0, # of connection points: 2
#     Edge 18, Type (0, 1), BuildingBlock: EZIPEK_clean_linker_0, # of connection points: 2
#     Edge 19, Type (0, 1), BuildingBlock: EZIPEK_clean_linker_0, # of connection points: 2
#     Edge 20, Type (0, 1), BuildingBlock: EZIPEK_clean_linker_0, # of connection points: 2
#     Edge 21, Type (0, 1), BuildingBlock: EZIPEK_clean_linker_0, # of connection points: 2
#     Edge 22, Type (0, 1), BuildingBlock: EZIPEK_clean_linker_0, # of connection points: 2
#     Edge 23, Type (0, 1), BuildingBlock: EZIPEK_clean_linker_0, # of connection points: 2
#     Edge 24, Type (0, 1), BuildingBlock: EZIPEK_clean_linker_0, # of connection points: 2
#     Edge 25, Type (0, 1), BuildingBlock: EZIPEK_clean_linker_0, # of connection points: 2
#     Edge 26, Type (0, 1), BuildingBlock: EZIPEK_clean_linker_0, # of connection points: 2
# Relax obj value: 0.069
# Max RMSD: 0.129
# Mean RMSD: 0.112
data_MOF--net-anh--node1-MIFKUJ_clean_sbu_0--node2-OLANEW_clean_sbu_2--edge1-EZIPEK_clean_linker_0
_symmetry_space_group_name_H-M    P1
_symmetry_Int_Tables_number       1
_symmetry_cell_setting            triclinic
loop_
_symmetry_equiv_pos_as_xyz
'x, y, z'
_cell_length_a     26.605501
_cell_length_b     26.478912
_cell_length_c     35.259759
_cell_angle_alpha  93.943067
_cell_angle_beta   90.723848
_cell_angle_gamma 119.96636
loop_
_atom_site_label
_atom_site_type_symbol
_atom_site_fract_x
_atom_site_fract_y
_atom_site_fract_z
_atom_type_partial_charge
Zn0 Zn 0.07886 0.57402 0.16543 0.0
Zn1 Zn 0.92833 0.45233 0.15738 0.0
C2 C 0.16644 0.54557 0.16931 0.0
O3 O 0.18322 0.58615 0.19781 0.0
C4 C 0.83237 0.46544 0.13494 0.0
O5 O 0.81819 0.41704 0.1137 0.0
O6 O 0.14354 0.65761 0.17165 0.0
O7 O 0.02435 0.5651 0.12224 0.0
O8 O 0.97638 0.46889 0.11131 0.0
C9 C 0.17263 0.68585 0.14451 0.0
O10 O 0.15692 0.66255 0.10924 0.0
O11 O 0.11813 0.52807 0.15135 0.0
C12 C 0.84005 0.34743 0.18322 0.0
O13 O 0.8517 0.3845 0.21324 0.0
O14 O 0.8701 0.36587 0.15437 0.0
O15 O 0.96408 0.47435 0.21054 0.0
O16 O 0.04993 0.55568 0.21719 0.0
O17 O 0.88039 0.49156 0.15443 0.0
C18 C 0.0049 0.5194 0.09939 0.0
C19 C 0.00676 0.51401 0.23121 0.0
Zn20 Zn 0.57212 0.10438 0.49267 0.0
Zn21 Zn 0.47214 0.91708 0.49177 0.0
C22 C 0.68821 0.17966 0.51399 0.0
O23 O 0.65939 0.18665 0.5419 0.0
C24 C 0.35574 0.82354 0.48273 0.0
O25 O 0.3696 0.82725 0.44702 0.0
O26 O 0.54759 0.16403 0.48554 0.0
O27 O 0.52233 0.02861 0.46203 0.0
O28 O 0.46385 0.93977 0.43912 0.0
C29 C 0.58097 0.21027 0.46976 0.0
O30 O 0.62808 0.21574 0.45461 0.0
O31 O 0.65847 0.1426 0.4862 0.0
C32 C 0.51216 0.84268 0.51478 0.0
O33 O 0.49409 0.85279 0.54739 0.0
O34 O 0.51371 0.87135 0.48699 0.0
O35 O 0.51213 0.98766 0.53132 0.0
O36 O 0.56112 0.08308 0.54667 0.0
O37 O 0.39214 0.8604 0.50828 0.0
C38 C 0.49178 0.99368 0.4339 0.0
C39 C 0.53683 0.03101 0.55643 0.0
Zn40 Zn 0.57283 0.51881 0.8228 0.0
Zn41 Zn 0.45397 0.50945 0.81626 0.0
C42 C 0.52643 0.40046 0.84146 0.0
O43 O 0.5646 0.42768 0.87026 0.0
C44 C 0.48909 0.63157 0.81204 0.0
O45 O 0.43794 0.60955 0.79445 0.0
O46 O 0.65596 0.53662 0.82805 0.0
O47 O 0.56365 0.54862 0.77398 0.0
O48 O 0.47193 0.47883 0.76738 0.0
C49 C 0.67005 0.50121 0.81216 0.0
O50 O 0.63141 0.45597 0.78998 0.0
O51 O 0.52284 0.4314 0.81682 0.0
C52 C 0.34969 0.5092 0.83536 0.0
O53 O 0.38158 0.53616 0.86686 0.0
O54 O 0.37036 0.49029 0.80947 0.0
O55 O 0.46165 0.48105 0.86602 0.0
O56 O 0.55494 0.54674 0.87235 0.0
O57 O 0.50612 0.59785 0.8233 0.0
C58 C 0.51935 0.51278 0.7528 0.0
C59 C 0.50691 0.51487 0.88717 0.0
O60 O 0.47842 0.12754 0.28752 0.0
Cd61 Cd 0.49496 0.16267 0.22415 0.0
O62 O 0.48782 0.05744 0.26054 0.0
Cd63 Cd 0.49046 0.97818 0.24208 0.0
O64 O 0.42273 0.89562 0.21362 0.0
C65 C 0.38295 0.8996 0.19609 0.0
O66 O 0.3877 0.95125 0.19464 0.0
C67 C 0.47625 0.0791 0.29033 0.0
C68 C 0.60744 0.1982 0.20383 0.0
O69 O 0.59501 0.23341 0.22247 0.0
O70 O 0.5668 0.14556 0.19456 0.0
O71 O 0.59259 0.54301 0.57662 0.0
Cd72 Cd 0.60319 0.539 0.50773 0.0
O73 O 0.49724 0.48879 0.56942 0.0
Cd74 Cd 0.50132 0.5124 0.51133 0.0
O75 O 0.52241 0.59637 0.49146 0.0
C76 C 0.50774 0.62489 0.51474 0.0
O77 O 0.48215 0.60128 0.54558 0.0
C78 C 0.54347 0.51363 0.59078 0.0
C79 C 0.58048 0.42676 0.48487 0.0
O80 O 0.63198 0.46781 0.49533 0.0
O81 O 0.53948 0.43875 0.48367 0.0
O82 O 0.06441 0.58736 0.92362 0.0
Cd83 Cd 0.08023 0.58737 0.85543 0.0
O84 O 0.00475 0.49203 0.9169 0.0
Cd85 Cd 0.98735 0.49537 0.8569 0.0
O86 O 0.92435 0.51279 0.82946 0.0
C87 C 0.87627 0.48958 0.84548 0.0
O88 O 0.86983 0.45761 0.87391 0.0
C89 C 0.03437 0.53911 0.93819 0.0
C90 C 0.15562 0.54477 0.84118 0.0
O91 O 0.17473 0.59977 0.8473 0.0
O92 O 0.10071 0.50953 0.84072 0.0
O93 O 0.02749 0.48759 0.4111 0.0
Cd94 Cd 0.0471 0.49759 0.47983 0.0
O95 O 0.97796 0.53385 0.41478 0.0
Cd96 Cd 0.96554 0.51621 0.47406 0.0
O97 O 0.91874 0.43521 0.50126 0.0
C98 C 0.87418 0.39617 0.48153 0.0
O99 O 0.86125 0.40831 0.44853 0.0
C100 C 0.00251 0.51132 0.39494 0.0
C101 C 0.14211 0.60941 0.49443 0.0
O102 O 0.14874 0.5653 0.4861 0.0
O103 O 0.09052 0.60038 0.49839 0.0
O104 O 0.57461 0.97942 0.72886 0.0
Cd105 Cd 0.58852 0.98169 0.79765 0.0
O106 O 0.54708 0.04349 0.74194 0.0
Cd107 Cd 0.52417 0.10907 0.72967 0.0
O108 O 0.51739 0.18477 0.75021 0.0
C109 C 0.49152 0.18039 0.78088 0.0
O110 O 0.46814 0.13078 0.7969 0.0
C111 C 0.55646 0.01214 0.71748 0.0
C112 C 0.57414 0.87464 0.81334 0.0
O113 O 0.53076 0.88309 0.81213 0.0
O114 O 0.62498 0.91766 0.80892 0.0
O115 O 0.51951 0.5013 0.06946 0.0
Cd116 Cd 0.54114 0.51418 0.13773 0.0
O117 O 0.50015 0.57289 0.06979 0.0
Cd118 Cd 0.48685 0.57168 0.13041 0.0
O119 O 0.40614 0.55508 0.15481 0.0
C120 C 0.36064 0.51672 0.13557 0.0
O121 O 0.36549 0.48722 0.10571 0.0
C122 C 0.50885 0.53519 0.05158 0.0
C123 C 0.64382 0.5122 0.14434 0.0
O124 O 0.64487 0.56053 0.1408 0.0
O125 O 0.59475 0.4656 0.1466 0.0
C126 C 0.22686 0.50028 0.18326 0.0
C127 C 0.20675 0.52528 0.15684 0.0
C128 C 0.28456 0.53947 0.11493 0.0
C129 C 0.30505 0.51505 0.14147 0.0
N130 N 0.29033 0.4614 0.19654 0.0
N131 N 0.20701 0.55468 0.09329 0.0
C132 C 0.27441 0.492 0.17435 0.0
C133 C 0.23212 0.53971 0.12114 0.0
N134 N 0.20083 0.48535 0.21708 0.0
N135 N 0.31743 0.5665 0.08523 0.0
H136 H 0.17121 0.56 0.09715 0.0
H137 H 0.21932 0.55796 0.06524 0.0
H138 H 0.35653 0.56806 0.07959 0.0
H139 H 0.30867 0.59185 0.06796 0.0
H140 H 0.21741 0.47372 0.23964 0.0
H141 H 0.16301 0.48636 0.22308 0.0
H142 H 0.2668 0.43873 0.21901 0.0
H143 H 0.32511 0.45488 0.19062 0.0
C144 C 0.77911 0.23092 0.47642 0.0
C145 C 0.75066 0.22524 0.51095 0.0
C146 C 0.81488 0.32873 0.53066 0.0
C147 C 0.83818 0.3367 0.49414 0.0
N148 N 0.85818 0.29396 0.43791 0.0
N149 N 0.76684 0.25939 0.57742 0.0
C150 C 0.82518 0.28715 0.46865 0.0
C151 C 0.77713 0.27116 0.54034 0.0
N152 N 0.76279 0.18273 0.45167 0.0
N153 N 0.82501 0.37553 0.55514 0.0
H154 H 0.74285 0.21654 0.58508 0.0
H155 H 0.78822 0.29086 0.60022 0.0
H156 H 0.85052 0.41884 0.54895 0.0
H157 H 0.80361 0.371 0.58033 0.0
H158 H 0.77536 0.18437 0.42375 0.0
H159 H 0.73768 0.1404 0.45987 0.0
H160 H 0.85365 0.2596 0.41925 0.0
H161 H 0.8939 0.33414 0.43278 0.0
C162 C 0.5643 0.72725 0.79184 0.0
C163 C 0.52507 0.69556 0.81928 0.0
C164 C 0.53526 0.78622 0.8498 0.0
C165 C 0.56462 0.81551 0.81792 0.0
N166 N 0.60399 0.81304 0.75671 0.0
N167 N 0.47469 0.69325 0.87589 0.0
C168 C 0.57952 0.78628 0.78875 0.0
C169 C 0.51158 0.72474 0.84908 0.0
N170 N 0.58643 0.7006 0.76859 0.0
N171 N 0.53091 0.81747 0.88082 0.0
H172 H 0.4599 0.64883 0.8774 0.0
H173 H 0.45722 0.71039 0.89566 0.0
H174 H 0.5489 0.8628 0.88229 0.0
H175 H 0.51436 0.79963 0.90628 0.0
H176 H 0.61909 0.72273 0.75004 0.0
H177 H 0.57645 0.65758 0.77098 0.0
H178 H 0.60928 0.79125 0.73273 0.0
H179 H 0.61475 0.85577 0.75251 0.0
C180 C 0.76805 0.49026 0.17428 0.0
C181 C 0.79003 0.4861 0.1383 0.0
C182 C 0.71813 0.50322 0.10652 0.0
C183 C 0.69744 0.50892 0.14253 0.0
N184 N 0.7102 0.5215 0.21084 0.0
N185 N 0.79526 0.50159 0.07155 0.0
C186 C 0.725 0.50698 0.17649 0.0
C187 C 0.76785 0.49658 0.1048 0.0
N188 N 0.78524 0.47452 0.20593 0.0
N189 N 0.68894 0.50197 0.07393 0.0
H190 H 0.83216 0.49752 0.0694 0.0
H191 H 0.78486 0.51506 0.04706 0.0
H192 H 0.65336 0.50848 0.074 0.0
H193 H 0.69751 0.49073 0.04689 0.0
H194 H 0.76559 0.47007 0.2318 0.0
H195 H 0.81586 0.46102 0.20582 0.0
H196 H 0.73301 0.52706 0.23645 0.0
H197 H 0.67825 0.53326 0.2133 0.0
C198 C 0.24778 0.76666 0.47403 0.0
C199 C 0.29909 0.7746 0.49252 0.0
C200 C 0.24189 0.68216 0.52143 0.0
C201 C 0.19319 0.66936 0.49738 0.0
N202 N 0.15137 0.69743 0.44731 0.0
N203 N 0.34637 0.73683 0.53129 0.0
C204 C 0.1961 0.71139 0.47313 0.0
C205 C 0.29654 0.73199 0.51605 0.0
N206 N 0.24844 0.8122 0.45754 0.0
N207 N 0.23566 0.64699 0.54972 0.0
H208 H 0.38741 0.77221 0.52798 0.0
H209 H 0.34742 0.70342 0.54461 0.0
H210 H 0.19581 0.61073 0.5548 0.0
H211 H 0.26833 0.65719 0.57046 0.0
H212 H 0.21105 0.81078 0.44681 0.0
H213 H 0.28558 0.85352 0.4582 0.0
H214 H 0.15431 0.72392 0.42594 0.0
H215 H 0.11296 0.65727 0.44495 0.0
C216 C 0.51603 0.30335 0.85462 0.0
C217 C 0.49927 0.33571 0.83261 0.0
C218 C 0.46271 0.25742 0.78073 0.0
C219 C 0.49055 0.23159 0.79968 0.0
N220 N 0.54759 0.23224 0.85395 0.0
N221 N 0.42969 0.3281 0.78509 0.0
C222 C 0.51737 0.25446 0.83675 0.0
C223 C 0.46447 0.30822 0.79852 0.0
N224 N 0.52686 0.31694 0.89301 0.0
N225 N 0.43565 0.23409 0.74552 0.0
H226 H 0.42472 0.36021 0.80058 0.0
H227 H 0.40033 0.30821 0.76168 0.0
H228 H 0.42976 0.19462 0.73283 0.0
H229 H 0.42126 0.25499 0.72808 0.0
H230 H 0.53503 0.29198 0.91102 0.0
H231 H 0.51884 0.34773 0.90742 0.0
H232 H 0.57349 0.25189 0.87895 0.0
H233 H 0.55135 0.19744 0.84161 0.0
C234 C 0.56052 0.787 0.53313 0.0
C235 C 0.51999 0.79109 0.50893 0.0
C236 C 0.48631 0.69159 0.47996 0.0
C237 C 0.51962 0.68438 0.50841 0.0
N238 N 0.59046 0.72441 0.56132 0.0
N239 N 0.4398 0.74505 0.46141 0.0
C240 C 0.55774 0.73211 0.53462 0.0
C241 C 0.48246 0.74328 0.4823 0.0
N242 N 0.60227 0.836 0.55406 0.0
N243 N 0.45731 0.64857 0.45113 0.0
H244 H 0.43443 0.78133 0.46204 0.0
H245 H 0.40632 0.70872 0.44569 0.0
H246 H 0.45701 0.60899 0.44926 0.0
H247 H 0.43783 0.65414 0.4272 0.0
H248 H 0.63638 0.8375 0.56984 0.0
H249 H 0.60572 0.87691 0.55303 0.0
H250 H 0.61335 0.75459 0.5844 0.0
H251 H 0.59317 0.68641 0.56104 0.0
C252 C 0.75083 0.51645 0.8583 0.0
C253 C 0.72808 0.5079 0.82021 0.0
C254 C 0.8056 0.49086 0.79746 0.0
C255 C 0.82964 0.50221 0.83533 0.0
N256 N 0.8361 0.54505 0.89911 0.0
N257 N 0.74396 0.50438 0.75306 0.0
C258 C 0.80577 0.52127 0.86488 0.0
C259 C 0.75875 0.50064 0.78959 0.0
N260 N 0.71886 0.51602 0.88846 0.0
N261 N 0.82506 0.4678 0.76938 0.0
H262 H 0.71129 0.51369 0.74639 0.0
H263 H 0.7682 0.50468 0.73 0.0
H264 H 0.8586 0.45901 0.77393 0.0
H265 H 0.80451 0.45271 0.74231 0.0
H266 H 0.73146 0.51565 0.9165 0.0
H267 H 0.67721 0.50999 0.88567 0.0
H268 H 0.82302 0.5646 0.92042 0.0
H269 H 0.87758 0.55134 0.90444 0.0
C270 C 0.22294 0.78623 0.17816 0.0
C271 C 0.22608 0.74327 0.15365 0.0
C272 C 0.33161 0.80758 0.15224 0.0
C273 C 0.32905 0.84638 0.18085 0.0
N274 N 0.27308 0.86735 0.22617 0.0
N275 N 0.28513 0.70897 0.12209 0.0
C276 C 0.2749 0.8345 0.19512 0.0
C277 C 0.28082 0.75292 0.14163 0.0
N278 N 0.1703 0.78167 0.18452 0.0
N279 N 0.38217 0.82344 0.13454 0.0
H280 H 0.24953 0.66779 0.11445 0.0
H281 H 0.32467 0.71158 0.11649 0.0
H282 H 0.42022 0.86325 0.14149 0.0
H283 H 0.38485 0.79963 0.11065 0.0
H284 H 0.1659 0.81465 0.1992 0.0
H285 H 0.13135 0.7477 0.17167 0.0
H286 H 0.23523 0.85647 0.24023 0.0
H287 H 0.31016 0.90215 0.24029 0.0
C288 C 0.57695 0.2909 0.43893 0.0
C289 C 0.57094 0.26065 0.47189 0.0
C290 C 0.55148 0.33031 0.50863 0.0
C291 C 0.56838 0.36603 0.47792 0.0
N292 N 0.59871 0.38234 0.41375 0.0
N293 N 0.56312 0.25882 0.54037 0.0
C294 C 0.58125 0.34677 0.44289 0.0
C295 C 0.56015 0.28163 0.50732 0.0
N296 N 0.5772 0.26566 0.40384 0.0
N297 N 0.52783 0.34332 0.53928 0.0
H298 H 0.57372 0.22609 0.54181 0.0
H299 H 0.56157 0.27704 0.56718 0.0
H300 H 0.52052 0.37859 0.54088 0.0
H301 H 0.50984 0.31564 0.56096 0.0
H302 H 0.57599 0.28312 0.37849 0.0
H303 H 0.5728 0.22422 0.39979 0.0
H304 H 0.61528 0.37381 0.38908 0.0
H305 H 0.59945 0.42222 0.41524 0.0
C306 C 0.25379 0.48259 0.8614 0.0
C307 C 0.29099 0.50273 0.83076 0.0
C308 C 0.22647 0.53241 0.80147 0.0
C309 C 0.19663 0.52285 0.83553 0.0
N310 N 0.17904 0.48679 0.89771 0.0
N311 N 0.30985 0.54162 0.76901 0.0
C312 C 0.20879 0.49637 0.8652 0.0
C313 C 0.2759 0.52505 0.79961 0.0
N314 N 0.26097 0.44904 0.88631 0.0
N315 N 0.20651 0.54728 0.77064 0.0
H316 H 0.34182 0.53086 0.76377 0.0
H317 H 0.307 0.56703 0.74878 0.0
H318 H 0.17031 0.55276 0.77129 0.0
H319 H 0.22224 0.54919 0.74359 0.0
H320 H 0.23244 0.42854 0.90742 0.0
H321 H 0.29247 0.43673 0.88329 0.0
H322 H 0.19068 0.47477 0.92238 0.0
H323 H 0.14399 0.49373 0.90066 0.0
C324 C 0.74565 0.26877 0.1505 0.0
C325 C 0.78637 0.28892 0.18211 0.0
C326 C 0.7091 0.22511 0.22219 0.0
C327 C 0.66785 0.21867 0.19369 0.0
N328 N 0.64485 0.22953 0.12953 0.0
N329 N 0.81085 0.27436 0.24462 0.0
C330 C 0.68544 0.23801 0.15716 0.0
C331 C 0.76922 0.26228 0.21679 0.0
N332 N 0.76425 0.27769 0.11438 0.0
N333 N 0.69033 0.19614 0.25428 0.0
H334 H 0.8551 0.29772 0.23966 0.0
H335 H 0.80226 0.26169 0.27215 0.0
H336 H 0.64634 0.1683 0.25832 0.0
H337 H 0.71767 0.19632 0.27568 0.0
H338 H 0.73627 0.26086 0.09013 0.0
H339 H 0.80768 0.29458 0.10837 0.0
H340 H 0.65535 0.24911 0.10397 0.0
H341 H 0.60027 0.20522 0.13307 0.0
C342 C 0.98563 0.55036 0.03776 0.0
C343 C 0.0127 0.52502 0.05813 0.0
C344 C 0.06054 0.51733 0.00084 0.0
C345 C 0.02978 0.53791 0.97983 0.0
N346 N 0.95843 0.5684 0.97631 0.0
N347 N 0.06898 0.47622 0.05813 0.0
C348 C -0.00871 0.55329 -0.00221 0.0
C349 C 0.04803 0.50597 0.03938 0.0
N350 N 0.95414 0.5712 0.05657 0.0
N351 N 0.10328 0.51071 0.98426 0.0
H352 H 0.06281 0.46869 0.08674 0.0
H353 H 0.0892 0.45539 0.0447 0.0
H354 H 0.11396 0.51972 0.95624 0.0
H355 H 0.13175 0.50193 -0.0009 0.0
H356 H 0.93946 0.59659 0.04449 0.0
H357 H 0.94466 0.56548 0.08508 0.0
H358 H 0.92441 0.57312 0.98664 0.0
H359 H 0.96267 0.57268 0.94717 0.0
C360 C 0.46848 0.05962 0.39802 0.0
C361 C 0.48224 0.01415 0.39765 0.0
C362 C 0.45939 -0.00397 0.32916 0.0
C363 C 0.46461 0.05154 0.32776 0.0
N364 N 0.45679 0.12904 0.36339 0.0
N365 N 0.49504 0.94134 0.36026 0.0
C366 C 0.46431 0.08167 0.36296 0.0
C367 C 0.47881 0.98284 0.36248 0.0
N368 N 0.45395 0.07787 0.43118 0.0
N369 N 0.42965 0.95348 0.3005 0.0
H370 H 0.51315 0.93238 0.38344 0.0
H371 H 0.49603 0.92054 0.33427 0.0
H372 H 0.40784 0.96006 0.27827 0.0
H373 H 0.42081 0.91054 0.30167 0.0
H374 H 0.43808 0.10676 0.43276 0.0
H375 H 0.45152 0.05939 0.45673 0.0
H376 H 0.46681 0.15844 0.38731 0.0
H377 H 0.43698 0.13698 0.34076 0.0
C378 C 0.51727 0.55213 0.69101 0.0
C379 C 0.5232 0.51079 0.71113 0.0
C380 C 0.54069 0.46927 0.65187 0.0
C381 C 0.53929 0.51374 0.63245 0.0
N382 N 0.53688 0.60371 0.63412 0.0
N383 N 0.54411 0.43222 0.71243 0.0
C384 C 0.53068 0.55703 0.65222 0.0
C385 C 0.53578 0.46977 0.69202 0.0
N386 N 0.4966 0.58513 0.70867 0.0
N387 N 0.54596 0.4263 0.63177 0.0
H388 H 0.5381 0.42963 0.74153 0.0
H389 H 0.55969 0.40563 0.70115 0.0
H390 H 0.55316 0.42692 0.60278 0.0
H391 H 0.5406 0.3888 0.64316 0.0
H392 H 0.48583 0.61201 0.69459 0.0
H393 H 0.48487 0.58128 0.73684 0.0
H394 H 0.5373 0.6399 0.64807 0.0
H395 H 0.547 0.60886 0.60568 0.0
C396 C 0.48965 0.99193 0.61748 0.0
C397 C 0.54068 0.02212 0.59714 0.0
C398 C 0.60106 0.0499 0.6564 0.0
C399 C 0.55051 0.01646 0.6763 0.0
N400 N 0.44762 0.94833 0.67573 0.0
N401 N 0.6451 0.06877 0.59553 0.0
C402 C 0.49499 0.98525 0.65681 0.0
C403 C 0.59648 0.04805 0.61615 0.0
N404 N 0.43629 0.97206 0.59974 0.0
N405 N 0.65329 0.08465 0.6761 0.0
H406 H 0.64355 0.06644 0.56585 0.0
H407 H 0.68647 0.08287 0.60748 0.0
H408 H 0.6585 0.08667 0.70565 0.0
H409 H 0.69038 0.11518 0.6636 0.0
H410 H 0.39793 0.95543 0.61402 0.0
H411 H 0.43058 0.97627 0.57106 0.0
H412 H 0.40721 0.91932 0.66224 0.0
H413 H 0.44976 0.94357 0.70474 0.0
C414 C 0.47585 0.46856 0.94922 0.0
C415 C 0.50357 0.51955 0.9291 0.0
C416 C 0.53822 0.58056 0.98953 0.0
C417 C 0.50595 0.53018 0.00946 0.0
N418 N 0.43126 0.42836 0.00735 0.0
N419 N 0.54583 0.62458 0.93061 0.0
C420 C 0.47092 0.47472 0.98906 0.0
C421 C 0.53023 0.57579 0.94938 0.0
N422 N 0.45648 0.41434 0.93094 0.0
N423 N 0.57849 0.63244 0.00851 0.0
H424 H 0.53772 0.62287 0.90141 0.0
H425 H 0.56043 0.66583 0.94468 0.0
H426 H 0.58779 0.63751 0.03779 0.0
H427 H 0.607 0.66873 -0.00543 0.0
H428 H 0.44193 0.37679 0.94535 0.0
H429 H 0.46004 0.40723 0.90197 0.0
H430 H 0.40074 0.3886 0.993 0.0
H431 H 0.42443 0.43154 0.03627 0.0
C432 C 0.01465 0.5638 0.29594 0.0
C433 C 0.00459 0.51303 0.27306 0.0
C434 C 0.98285 0.45894 0.3298 0.0
C435 C 0.00158 0.51185 0.353 0.0
N436 N 0.0462 0.61731 0.35789 0.0
N437 N 0.98985 0.41494 0.26924 0.0
C438 C 0.02048 0.56511 0.33605 0.0
C439 C -0.00845 0.46119 0.29023 0.0
N440 N 0.016 0.60982 0.27964 0.0
N441 N 0.95463 0.40632 0.34519 0.0
H442 H -0.00161 0.41551 0.24045 0.0
H443 H 0.98599 0.37842 0.28133 0.0
H444 H 0.94516 0.40253 0.37382 0.0
H445 H 0.93503 0.36632 0.32873 0.0
H446 H 0.01756 0.64532 0.29549 0.0
H447 H 0.00897 0.60969 0.25046 0.0
H448 H 0.06627 0.65762 0.34634 0.0
H449 H 0.05273 0.62066 0.38734 0.0
loop_
_geom_bond_atom_site_label_1
_geom_bond_atom_site_label_2
_geom_bond_distance
_geom_bond_site_symmetry_2
_ccdc_geom_bond_type
Zn0 O6 1.969 . S
Zn0 O7 1.965 . S
Zn0 O11 2.024 . S
Zn0 O16 1.969 . S
Zn1 O8 1.969 . S
Zn1 O14 1.969 . S
Zn1 O15 1.965 . S
Zn1 O17 2.024 . S
C2 O3 1.229 . S
C2 O11 1.058 . S
O3 C2 1.229 . S
C4 O5 1.229 . S
C4 O17 1.058 . S
O5 C4 1.229 . S
O6 Zn0 1.969 . S
O6 C9 1.267 . S
O7 Zn0 1.965 . S
O7 C18 1.260 . S
O8 Zn1 1.969 . S
O8 C18 1.258 1_655 S
C9 O6 1.267 . S
C9 O10 1.228 . S
O10 C9 1.228 . S
O11 Zn0 2.024 . S
O11 C2 1.058 . S
C12 O13 1.228 . S
C12 O14 1.267 . S
O13 C12 1.228 . S
O14 Zn1 1.969 . S
O14 C12 1.267 . S
O15 Zn1 1.965 . S
O15 C19 1.260 1_655 S
O16 Zn0 1.969 . S
O16 C19 1.258 . S
O17 Zn1 2.024 . S
O17 C4 1.058 . S
C18 O7 1.260 . S
C18 O8 1.258 1_455 S
C19 O15 1.260 1_455 S
C19 O16 1.258 . S
Zn20 O26 1.969 . S
Zn20 O27 1.965 . S
Zn20 O31 2.024 . S
Zn20 O36 1.969 . S
Zn21 O28 1.969 . S
Zn21 O34 1.969 . S
Zn21 O35 1.965 . S
Zn21 O37 2.024 . S
C22 O23 1.229 . S
C22 O31 1.058 . S
O23 C22 1.229 . S
C24 O25 1.229 . S
C24 O37 1.058 . S
O25 C24 1.229 . S
O26 Zn20 1.969 . S
O26 C29 1.267 . S
O27 Zn20 1.965 . S
O27 C38 1.260 . S
O28 Zn21 1.969 . S
O28 C38 1.258 1_565 S
C29 O26 1.267 . S
C29 O30 1.228 . S
O30 C29 1.228 . S
O31 Zn20 2.024 . S
O31 C22 1.058 . S
C32 O33 1.228 . S
C32 O34 1.267 . S
O33 C32 1.228 . S
O34 Zn21 1.969 . S
O34 C32 1.267 . S
O35 Zn21 1.965 . S
O35 C39 1.260 1_565 S
O36 Zn20 1.969 . S
O36 C39 1.258 . S
O37 Zn21 2.024 . S
O37 C24 1.058 . S
C38 O27 1.260 . S
C38 O28 1.258 1_545 S
C39 O35 1.260 1_545 S
C39 O36 1.258 . S
Zn40 O46 1.969 . S
Zn40 O47 1.965 . S
Zn40 O51 2.024 . S
Zn40 O56 1.969 . S
Zn41 O48 1.969 . S
Zn41 O54 1.969 . S
Zn41 O55 1.965 . S
Zn41 O57 2.024 . S
C42 O43 1.229 . S
C42 O51 1.058 . S
O43 C42 1.229 . S
C44 O45 1.229 . S
C44 O57 1.058 . S
O45 C44 1.229 . S
O46 Zn40 1.969 . S
O46 C49 1.267 . S
O47 Zn40 1.965 . S
O47 C58 1.260 . S
O48 Zn41 1.969 . S
O48 C58 1.258 . S
C49 O46 1.267 . S
C49 O50 1.228 . S
O50 C49 1.228 . S
O51 Zn40 2.024 . S
O51 C42 1.058 . S
C52 O53 1.228 . S
C52 O54 1.267 . S
O53 C52 1.228 . S
O54 Zn41 1.969 . S
O54 C52 1.267 . S
O55 Zn41 1.965 . S
O55 C59 1.260 . S
O56 Zn40 1.969 . S
O56 C59 1.258 . S
O57 Zn41 2.024 . S
O57 C44 1.058 . S
C58 O47 1.260 . S
C58 O48 1.258 . S
C59 O55 1.260 . S
C59 O56 1.258 . S
O60 Cd61 2.300 . S
O60 C67 1.275 . S
Cd61 O60 2.300 . S
Cd61 O69 2.381 . S
Cd61 O70 2.378 . S
O62 Cd63 2.385 . S
O62 C67 1.255 1_565 S
Cd63 O62 2.385 . S
Cd63 O64 2.317 . S
O64 Cd63 2.317 . S
O64 C65 1.232 . S
C65 O64 1.232 . S
C65 O66 1.218 . S
O66 C65 1.218 . S
C67 O60 1.275 . S
C67 O62 1.255 1_545 S
C68 O69 1.258 . S
C68 O70 1.256 . S
O69 Cd61 2.381 . S
O69 C68 1.258 . S
O70 Cd61 2.378 . S
O70 C68 1.256 . S
O71 Cd72 2.300 . S
O71 C78 1.275 . S
Cd72 O71 2.300 . S
Cd72 O80 2.381 . S
Cd72 O81 2.378 . S
O73 Cd74 2.385 . S
O73 C78 1.255 . S
Cd74 O73 2.385 . S
Cd74 O75 2.317 . S
O75 Cd74 2.317 . S
O75 C76 1.232 . S
C76 O75 1.232 . S
C76 O77 1.218 . S
O77 C76 1.218 . S
C78 O71 1.275 . S
C78 O73 1.255 . S
C79 O80 1.258 . S
C79 O81 1.256 . S
O80 Cd72 2.381 . S
O80 C79 1.258 . S
O81 Cd72 2.378 . S
O81 C79 1.256 . S
O82 Cd83 2.300 . S
O82 C89 1.275 . S
Cd83 O82 2.300 . S
Cd83 O91 2.381 . S
Cd83 O92 2.378 . S
O84 Cd85 2.385 . S
O84 C89 1.255 1_655 S
Cd85 O84 2.385 . S
Cd85 O86 2.317 . S
O86 Cd85 2.317 . S
O86 C87 1.232 . S
C87 O86 1.232 . S
C87 O88 1.218 . S
O88 C87 1.218 . S
C89 O82 1.275 . S
C89 O84 1.255 1_455 S
C90 O91 1.258 . S
C90 O92 1.256 . S
O91 Cd83 2.381 . S
O91 C90 1.258 . S
O92 Cd83 2.378 . S
O92 C90 1.256 . S
O93 Cd94 2.300 . S
O93 C100 1.275 . S
Cd94 O93 2.300 . S
Cd94 O102 2.381 . S
Cd94 O103 2.378 . S
O95 Cd96 2.385 . S
O95 C100 1.255 1_655 S
Cd96 O95 2.385 . S
Cd96 O97 2.317 . S
O97 Cd96 2.317 . S
O97 C98 1.232 . S
C98 O97 1.232 . S
C98 O99 1.218 . S
O99 C98 1.218 . S
C100 O93 1.275 . S
C100 O95 1.255 1_455 S
C101 O102 1.258 . S
C101 O103 1.256 . S
O102 Cd94 2.381 . S
O102 C101 1.258 . S
O103 Cd94 2.378 . S
O103 C101 1.256 . S
O104 Cd105 2.300 . S
O104 C111 1.275 1_565 S
Cd105 O104 2.300 . S
Cd105 O113 2.381 . S
Cd105 O114 2.378 . S
O106 Cd107 2.385 . S
O106 C111 1.255 . S
Cd107 O106 2.385 . S
Cd107 O108 2.317 . S
O108 Cd107 2.317 . S
O108 C109 1.232 . S
C109 O108 1.232 . S
C109 O110 1.218 . S
O110 C109 1.218 . S
C111 O104 1.275 1_545 S
C111 O106 1.255 . S
C112 O113 1.258 . S
C112 O114 1.256 . S
O113 Cd105 2.381 . S
O113 C112 1.258 . S
O114 Cd105 2.378 . S
O114 C112 1.256 . S
O115 Cd116 2.300 . S
O115 C122 1.275 . S
Cd116 O115 2.300 . S
Cd116 O124 2.381 . S
Cd116 O125 2.378 . S
O117 Cd118 2.385 . S
O117 C122 1.255 . S
Cd118 O117 2.385 . S
Cd118 O119 2.317 . S
O119 Cd118 2.317 . S
O119 C120 1.232 . S
C120 O119 1.232 . S
C120 O121 1.218 . S
O121 C120 1.218 . S
C122 O115 1.275 . S
C122 O117 1.255 . S
C123 O124 1.258 . S
C123 O125 1.256 . S
O124 Cd116 2.381 . S
O124 C123 1.258 . S
O125 Cd116 2.378 . S
O125 C123 1.256 . S
C126 C127 1.363 . S
C126 C132 1.379 . S
C126 N134 1.356 . S
C127 C126 1.363 . S
C127 C133 1.363 . S
C128 C129 1.363 . S
C128 C133 1.379 . S
C128 N135 1.356 . S
C129 C128 1.363 . S
C129 C132 1.363 . S
N130 C132 1.356 . S
N130 H142 0.984 . S
N130 H143 0.985 . S
N131 C133 1.356 . S
N131 H136 0.984 . S
N131 H137 0.985 . S
C132 C126 1.379 . S
C132 C129 1.363 . S
C132 N130 1.356 . S
C133 C127 1.363 . S
C133 C128 1.379 . S
C133 N131 1.356 . S
N134 C126 1.356 . S
N134 H140 0.984 . S
N134 H141 0.984 . S
N135 C128 1.356 . S
N135 H138 0.984 . S
N135 H139 0.985 . S
H136 N131 0.984 . S
H137 N131 0.985 . S
H138 N135 0.984 . S
H139 N135 0.985 . S
H140 N134 0.984 . S
H141 N134 0.984 . S
H142 N130 0.984 . S
H143 N130 0.985 . S
C144 C145 1.363 . S
C144 C150 1.379 . S
C144 N152 1.356 . S
C145 C144 1.363 . S
C145 C151 1.363 . S
C146 C147 1.363 . S
C146 C151 1.379 . S
C146 N153 1.356 . S
C147 C146 1.363 . S
C147 C150 1.363 . S
N148 C150 1.356 . S
N148 H160 0.984 . S
N148 H161 0.985 . S
N149 C151 1.356 . S
N149 H154 0.984 . S
N149 H155 0.985 . S
C150 C144 1.379 . S
C150 C147 1.363 . S
C150 N148 1.356 . S
C151 C145 1.363 . S
C151 C146 1.379 . S
C151 N149 1.356 . S
N152 C144 1.356 . S
N152 H158 0.984 . S
N152 H159 0.984 . S
N153 C146 1.356 . S
N153 H156 0.984 . S
N153 H157 0.985 . S
H154 N149 0.984 . S
H155 N149 0.985 . S
H156 N153 0.984 . S
H157 N153 0.985 . S
H158 N152 0.984 . S
H159 N152 0.984 . S
H160 N148 0.984 . S
H161 N148 0.985 . S
C162 C163 1.363 . S
C162 C168 1.379 . S
C162 N170 1.356 . S
C163 C162 1.363 . S
C163 C169 1.363 . S
C164 C165 1.363 . S
C164 C169 1.379 . S
C164 N171 1.356 . S
C165 C164 1.363 . S
C165 C168 1.363 . S
N166 C168 1.356 . S
N166 H178 0.984 . S
N166 H179 0.985 . S
N167 C169 1.356 . S
N167 H172 0.984 . S
N167 H173 0.985 . S
C168 C162 1.379 . S
C168 C165 1.363 . S
C168 N166 1.356 . S
C169 C163 1.363 . S
C169 C164 1.379 . S
C169 N167 1.356 . S
N170 C162 1.356 . S
N170 H176 0.984 . S
N170 H177 0.984 . S
N171 C164 1.356 . S
N171 H174 0.984 . S
N171 H175 0.985 . S
H172 N167 0.984 . S
H173 N167 0.985 . S
H174 N171 0.984 . S
H175 N171 0.985 . S
H176 N170 0.984 . S
H177 N170 0.984 . S
H178 N166 0.984 . S
H179 N166 0.985 . S
C180 C181 1.363 . S
C180 C186 1.379 . S
C180 N188 1.356 . S
C181 C180 1.363 . S
C181 C187 1.363 . S
C182 C183 1.363 . S
C182 C187 1.379 . S
C182 N189 1.356 . S
C183 C182 1.363 . S
C183 C186 1.363 . S
N184 C186 1.356 . S
N184 H196 0.984 . S
N184 H197 0.985 . S
N185 C187 1.356 . S
N185 H190 0.984 . S
N185 H191 0.985 . S
C186 C180 1.379 . S
C186 C183 1.363 . S
C186 N184 1.356 . S
C187 C181 1.363 . S
C187 C182 1.379 . S
C187 N185 1.356 . S
N188 C180 1.356 . S
N188 H194 0.984 . S
N188 H195 0.984 . S
N189 C182 1.356 . S
N189 H192 0.984 . S
N189 H193 0.985 . S
H190 N185 0.984 . S
H191 N185 0.985 . S
H192 N189 0.984 . S
H193 N189 0.985 . S
H194 N188 0.984 . S
H195 N188 0.984 . S
H196 N184 0.984 . S
H197 N184 0.985 . S
C198 C199 1.363 . S
C198 C204 1.379 . S
C198 N206 1.356 . S
C199 C198 1.363 . S
C199 C205 1.363 . S
C200 C201 1.363 . S
C200 C205 1.379 . S
C200 N207 1.356 . S
C201 C200 1.363 . S
C201 C204 1.363 . S
N202 C204 1.356 . S
N202 H214 0.984 . S
N202 H215 0.985 . S
N203 C205 1.356 . S
N203 H208 0.984 . S
N203 H209 0.985 . S
C204 C198 1.379 . S
C204 C201 1.363 . S
C204 N202 1.356 . S
C205 C199 1.363 . S
C205 C200 1.379 . S
C205 N203 1.356 . S
N206 C198 1.356 . S
N206 H212 0.984 . S
N206 H213 0.984 . S
N207 C200 1.356 . S
N207 H210 0.984 . S
N207 H211 0.985 . S
H208 N203 0.984 . S
H209 N203 0.985 . S
H210 N207 0.984 . S
H211 N207 0.985 . S
H212 N206 0.984 . S
H213 N206 0.984 . S
H214 N202 0.984 . S
H215 N202 0.985 . S
C216 C217 1.363 . S
C216 C222 1.379 . S
C216 N224 1.356 . S
C217 C216 1.363 . S
C217 C223 1.363 . S
C218 C219 1.363 . S
C218 C223 1.379 . S
C218 N225 1.356 . S
C219 C218 1.363 . S
C219 C222 1.363 . S
N220 C222 1.356 . S
N220 H232 0.984 . S
N220 H233 0.985 . S
N221 C223 1.356 . S
N221 H226 0.984 . S
N221 H227 0.985 . S
C222 C216 1.379 . S
C222 C219 1.363 . S
C222 N220 1.356 . S
C223 C217 1.363 . S
C223 C218 1.379 . S
C223 N221 1.356 . S
N224 C216 1.356 . S
N224 H230 0.984 . S
N224 H231 0.984 . S
N225 C218 1.356 . S
N225 H228 0.984 . S
N225 H229 0.985 . S
H226 N221 0.984 . S
H227 N221 0.985 . S
H228 N225 0.984 . S
H229 N225 0.985 . S
H230 N224 0.984 . S
H231 N224 0.984 . S
H232 N220 0.984 . S
H233 N220 0.985 . S
C234 C235 1.363 . S
C234 C240 1.379 . S
C234 N242 1.356 . S
C235 C234 1.363 . S
C235 C241 1.363 . S
C236 C237 1.363 . S
C236 C241 1.379 . S
C236 N243 1.356 . S
C237 C236 1.363 . S
C237 C240 1.363 . S
N238 C240 1.356 . S
N238 H250 0.984 . S
N238 H251 0.985 . S
N239 C241 1.356 . S
N239 H244 0.984 . S
N239 H245 0.985 . S
C240 C234 1.379 . S
C240 C237 1.363 . S
C240 N238 1.356 . S
C241 C235 1.363 . S
C241 C236 1.379 . S
C241 N239 1.356 . S
N242 C234 1.356 . S
N242 H248 0.984 . S
N242 H249 0.984 . S
N243 C236 1.356 . S
N243 H246 0.984 . S
N243 H247 0.985 . S
H244 N239 0.984 . S
H245 N239 0.985 . S
H246 N243 0.984 . S
H247 N243 0.985 . S
H248 N242 0.984 . S
H249 N242 0.984 . S
H250 N238 0.984 . S
H251 N238 0.985 . S
C252 C253 1.363 . S
C252 C258 1.379 . S
C252 N260 1.356 . S
C253 C252 1.363 . S
C253 C259 1.363 . S
C254 C255 1.363 . S
C254 C259 1.379 . S
C254 N261 1.356 . S
C255 C254 1.363 . S
C255 C258 1.363 . S
N256 C258 1.356 . S
N256 H268 0.984 . S
N256 H269 0.985 . S
N257 C259 1.356 . S
N257 H262 0.984 . S
N257 H263 0.985 . S
C258 C252 1.379 . S
C258 C255 1.363 . S
C258 N256 1.356 . S
C259 C253 1.363 . S
C259 C254 1.379 . S
C259 N257 1.356 . S
N260 C252 1.356 . S
N260 H266 0.984 . S
N260 H267 0.984 . S
N261 C254 1.356 . S
N261 H264 0.984 . S
N261 H265 0.985 . S
H262 N257 0.984 . S
H263 N257 0.985 . S
H264 N261 0.984 . S
H265 N261 0.985 . S
H266 N260 0.984 . S
H267 N260 0.984 . S
H268 N256 0.984 . S
H269 N256 0.985 . S
C270 C271 1.363 . S
C270 C276 1.379 . S
C270 N278 1.356 . S
C271 C270 1.363 . S
C271 C277 1.363 . S
C272 C273 1.363 . S
C272 C277 1.379 . S
C272 N279 1.356 . S
C273 C272 1.363 . S
C273 C276 1.363 . S
N274 C276 1.356 . S
N274 H286 0.984 . S
N274 H287 0.985 . S
N275 C277 1.356 . S
N275 H280 0.984 . S
N275 H281 0.985 . S
C276 C270 1.379 . S
C276 C273 1.363 . S
C276 N274 1.356 . S
C277 C271 1.363 . S
C277 C272 1.379 . S
C277 N275 1.356 . S
N278 C270 1.356 . S
N278 H284 0.984 . S
N278 H285 0.984 . S
N279 C272 1.356 . S
N279 H282 0.984 . S
N279 H283 0.985 . S
H280 N275 0.984 . S
H281 N275 0.985 . S
H282 N279 0.984 . S
H283 N279 0.985 . S
H284 N278 0.984 . S
H285 N278 0.984 . S
H286 N274 0.984 . S
H287 N274 0.985 . S
C288 C289 1.363 . S
C288 C294 1.379 . S
C288 N296 1.356 . S
C289 C288 1.363 . S
C289 C295 1.363 . S
C290 C291 1.363 . S
C290 C295 1.379 . S
C290 N297 1.356 . S
C291 C290 1.363 . S
C291 C294 1.363 . S
N292 C294 1.356 . S
N292 H304 0.984 . S
N292 H305 0.985 . S
N293 C295 1.356 . S
N293 H298 0.984 . S
N293 H299 0.985 . S
C294 C288 1.379 . S
C294 C291 1.363 . S
C294 N292 1.356 . S
C295 C289 1.363 . S
C295 C290 1.379 . S
C295 N293 1.356 . S
N296 C288 1.356 . S
N296 H302 0.984 . S
N296 H303 0.984 . S
N297 C290 1.356 . S
N297 H300 0.984 . S
N297 H301 0.985 . S
H298 N293 0.984 . S
H299 N293 0.985 . S
H300 N297 0.984 . S
H301 N297 0.985 . S
H302 N296 0.984 . S
H303 N296 0.984 . S
H304 N292 0.984 . S
H305 N292 0.985 . S
C306 C307 1.363 . S
C306 C312 1.379 . S
C306 N314 1.356 . S
C307 C306 1.363 . S
C307 C313 1.363 . S
C308 C309 1.363 . S
C308 C313 1.379 . S
C308 N315 1.356 . S
C309 C308 1.363 . S
C309 C312 1.363 . S
N310 C312 1.356 . S
N310 H322 0.984 . S
N310 H323 0.985 . S
N311 C313 1.356 . S
N311 H316 0.984 . S
N311 H317 0.985 . S
C312 C306 1.379 . S
C312 C309 1.363 . S
C312 N310 1.356 . S
C313 C307 1.363 . S
C313 C308 1.379 . S
C313 N311 1.356 . S
N314 C306 1.356 . S
N314 H320 0.984 . S
N314 H321 0.984 . S
N315 C308 1.356 . S
N315 H318 0.984 . S
N315 H319 0.985 . S
H316 N311 0.984 . S
H317 N311 0.985 . S
H318 N315 0.984 . S
H319 N315 0.985 . S
H320 N314 0.984 . S
H321 N314 0.984 . S
H322 N310 0.984 . S
H323 N310 0.985 . S
C324 C325 1.363 . S
C324 C330 1.379 . S
C324 N332 1.356 . S
C325 C324 1.363 . S
C325 C331 1.363 . S
C326 C327 1.363 . S
C326 C331 1.379 . S
C326 N333 1.356 . S
C327 C326 1.363 . S
C327 C330 1.363 . S
N328 C330 1.356 . S
N328 H340 0.984 . S
N328 H341 0.985 . S
N329 C331 1.356 . S
N329 H334 0.984 . S
N329 H335 0.985 . S
C330 C324 1.379 . S
C330 C327 1.363 . S
C330 N328 1.356 . S
C331 C325 1.363 . S
C331 C326 1.379 . S
C331 N329 1.356 . S
N332 C324 1.356 . S
N332 H338 0.984 . S
N332 H339 0.984 . S
N333 C326 1.356 . S
N333 H336 0.984 . S
N333 H337 0.985 . S
H334 N329 0.984 . S
H335 N329 0.985 . S
H336 N333 0.984 . S
H337 N333 0.985 . S
H338 N332 0.984 . S
H339 N332 0.984 . S
H340 N328 0.984 . S
H341 N328 0.985 . S
C342 C343 1.363 1_655 S
C342 C348 1.379 . S
C342 N350 1.356 . S
C343 C342 1.363 1_455 S
C343 C349 1.363 . S
C344 C345 1.363 1_554 S
C344 C349 1.379 . S
C344 N351 1.356 1_554 S
C345 C344 1.363 1_556 S
C345 C348 1.363 1_456 S
N346 C348 1.356 1_556 S
N346 H358 0.984 . S
N346 H359 0.985 . S
N347 C349 1.356 . S
N347 H352 0.984 . S
N347 H353 0.985 . S
C348 C342 1.379 . S
C348 C345 1.363 1_654 S
C348 N346 1.356 1_554 S
C349 C343 1.363 . S
C349 C344 1.379 . S
C349 N347 1.356 . S
N350 C342 1.356 . S
N350 H356 0.984 . S
N350 H357 0.984 . S
N351 C344 1.356 1_556 S
N351 H354 0.984 . S
N351 H355 0.985 . S
H352 N347 0.984 . S
H353 N347 0.985 . S
H354 N351 0.984 . S
H355 N351 0.985 . S
H356 N350 0.984 . S
H357 N350 0.984 . S
H358 N346 0.984 . S
H359 N346 0.985 . S
C360 C361 1.363 . S
C360 C366 1.379 . S
C360 N368 1.356 . S
C361 C360 1.363 . S
C361 C367 1.363 1_545 S
C362 C363 1.363 1_565 S
C362 C367 1.379 . S
C362 N369 1.356 . S
C363 C362 1.363 1_545 S
C363 C366 1.363 . S
N364 C366 1.356 . S
N364 H376 0.984 . S
N364 H377 0.985 . S
N365 C367 1.356 . S
N365 H370 0.984 . S
N365 H371 0.985 . S
C366 C360 1.379 . S
C366 C363 1.363 . S
C366 N364 1.356 . S
C367 C361 1.363 1_565 S
C367 C362 1.379 . S
C367 N365 1.356 . S
N368 C360 1.356 . S
N368 H374 0.984 . S
N368 H375 0.984 . S
N369 C362 1.356 . S
N369 H372 0.984 . S
N369 H373 0.985 . S
H370 N365 0.984 . S
H371 N365 0.985 . S
H372 N369 0.984 . S
H373 N369 0.985 . S
H374 N368 0.984 . S
H375 N368 0.984 . S
H376 N364 0.984 . S
H377 N364 0.985 . S
C378 C379 1.363 . S
C378 C384 1.379 . S
C378 N386 1.356 . S
C379 C378 1.363 . S
C379 C385 1.363 . S
C380 C381 1.363 . S
C380 C385 1.379 . S
C380 N387 1.356 . S
C381 C380 1.363 . S
C381 C384 1.363 . S
N382 C384 1.356 . S
N382 H394 0.984 . S
N382 H395 0.985 . S
N383 C385 1.356 . S
N383 H388 0.984 . S
N383 H389 0.985 . S
C384 C378 1.379 . S
C384 C381 1.363 . S
C384 N382 1.356 . S
C385 C379 1.363 . S
C385 C380 1.379 . S
C385 N383 1.356 . S
N386 C378 1.356 . S
N386 H392 0.984 . S
N386 H393 0.984 . S
N387 C380 1.356 . S
N387 H390 0.984 . S
N387 H391 0.985 . S
H388 N383 0.984 . S
H389 N383 0.985 . S
H390 N387 0.984 . S
H391 N387 0.985 . S
H392 N386 0.984 . S
H393 N386 0.984 . S
H394 N382 0.984 . S
H395 N382 0.985 . S
C396 C397 1.363 1_565 S
C396 C402 1.379 . S
C396 N404 1.356 . S
C397 C396 1.363 1_545 S
C397 C403 1.363 . S
C398 C399 1.363 . S
C398 C403 1.379 . S
C398 N405 1.356 . S
C399 C398 1.363 . S
C399 C402 1.363 1_545 S
N400 C402 1.356 . S
N400 H412 0.984 . S
N400 H413 0.985 . S
N401 C403 1.356 . S
N401 H406 0.984 . S
N401 H407 0.985 . S
C402 C396 1.379 . S
C402 C399 1.363 1_565 S
C402 N400 1.356 . S
C403 C397 1.363 . S
C403 C398 1.379 . S
C403 N401 1.356 . S
N404 C396 1.356 . S
N404 H410 0.984 . S
N404 H411 0.984 . S
N405 C398 1.356 . S
N405 H408 0.984 . S
N405 H409 0.985 . S
H406 N401 0.984 . S
H407 N401 0.985 . S
H408 N405 0.984 . S
H409 N405 0.985 . S
H410 N404 0.984 . S
H411 N404 0.984 . S
H412 N400 0.984 . S
H413 N400 0.985 . S
C414 C415 1.363 . S
C414 C420 1.379 . S
C414 N422 1.356 . S
C415 C414 1.363 . S
C415 C421 1.363 . S
C416 C417 1.363 1_556 S
C416 C421 1.379 . S
C416 N423 1.356 1_556 S
C417 C416 1.363 1_554 S
C417 C420 1.363 1_554 S
N418 C420 1.356 1_554 S
N418 H430 0.982 1_554 S
N418 H431 0.985 . S
N419 C421 1.356 . S
N419 H424 0.984 . S
N419 H425 0.985 . S
C420 C414 1.379 . S
C420 C417 1.363 1_556 S
C420 N418 1.356 1_556 S
C421 C415 1.363 . S
C421 C416 1.379 . S
C421 N419 1.356 . S
N422 C414 1.356 . S
N422 H428 0.984 . S
N422 H429 0.984 . S
N423 C416 1.356 1_554 S
N423 H426 0.984 . S
N423 H427 0.985 . S
H424 N419 0.984 . S
H425 N419 0.985 . S
H426 N423 0.984 . S
H427 N423 0.985 . S
H428 N422 0.984 . S
H429 N422 0.984 . S
H430 N418 0.982 1_556 S
H431 N418 0.985 . S
C432 C433 1.363 . S
C432 C438 1.379 . S
C432 N440 1.356 . S
C433 C432 1.363 . S
C433 C439 1.363 1_455 S
C434 C435 1.361 1_655 S
C434 C439 1.379 . S
C434 N441 1.356 . S
C435 C434 1.361 1_455 S
C435 C438 1.365 . S
N436 C438 1.356 . S
N436 H448 0.984 . S
N436 H449 0.985 . S
N437 C439 1.356 . S
N437 H442 0.984 . S
N437 H443 0.985 . S
C438 C432 1.379 . S
C438 C435 1.365 . S
C438 N436 1.356 . S
C439 C433 1.363 1_655 S
C439 C434 1.379 . S
C439 N437 1.356 . S
N440 C432 1.356 . S
N440 H446 0.984 . S
N440 H447 0.984 . S
N441 C434 1.356 . S
N441 H444 0.984 . S
N441 H445 0.985 . S
H442 N437 0.984 . S
H443 N437 0.985 . S
H444 N441 0.984 . S
H445 N441 0.985 . S
H446 N440 0.984 . S
H447 N440 0.984 . S
H448 N436 0.984 . S
H449 N436 0.985 . S
C127 C2 1.529 . S
C129 C120 1.418 . S
C145 C22 1.534 . S
C147 C98 1.439 . S
C163 C44 1.379 . S
C165 C112 1.423 . S
C181 C4 1.477 . S
C183 C123 1.514 . S
C201 C101 1.519 . S
C199 C24 1.492 . S
C219 C109 1.480 . S
C217 C42 1.600 . S
C235 C32 1.440 . S
C237 C76 1.214 . S
C253 C49 1.400 . S
C255 C87 1.205 . S
C271 C9 1.396 . S
C273 C65 1.205 . S
C291 C79 1.203 . S
C289 C29 1.188 . S
C309 C90 1.238 . S
C307 C52 1.233 . S
C325 C12 1.228 . S
C327 C68 1.232 . S
C345 C89 1.404 . S
C343 C18 1.457 . S
C361 C38 1.455 . S
C363 C67 1.405 . S
C379 C58 1.471 . S
C381 C78 1.410 . S
C399 C111 1.461 . S
C397 C39 1.524 . S
C417 C122 1.462 . S
C415 C59 1.532 . S
C433 C19 1.532 . S
C435 C100 1.463 . S
