# Generated by pormake.
# Topology gar, (4,6)-cn, num edge types: 1
# Building blocks:
#     Node 0, Type 0, BuildingBlock: CEKHIL_clean_sbu_0, # of connection points: 4
#     Node 1, Type 0, BuildingBlock: CEKHIL_clean_sbu_0, # of connection points: 4
#     Node 2, Type 0, BuildingBlock: CEKHIL_clean_sbu_0, # of connection points: 4
#     Node 3, Type 0, BuildingBlock: CEKHIL_clean_sbu_0, # of connection points: 4
#     Node 4, Type 0, BuildingBlock: CEKHIL_clean_sbu_0, # of connection points: 4
#     Node 5, Type 0, BuildingBlock: CEKHIL_clean_sbu_0, # of connection points: 4
#     Node 6, Type 0, BuildingBlock: CEKHIL_clean_sbu_0, # of connection points: 4
#     Node 7, Type 0, BuildingBlock: CEKHIL_clean_sbu_0, # of connection points: 4
#     Node 8, Type 0, BuildingBlock: CEKHIL_clean_sbu_0, # of connection points: 4
#     Node 9, Type 0, BuildingBlock: CEKHIL_clean_sbu_0, # of connection points: 4
#     Node 10, Type 0, BuildingBlock: CEKHIL_clean_sbu_0, # of connection points: 4
#     Node 11, Type 0, BuildingBlock: CEKHIL_clean_sbu_0, # of connection points: 4
#     Node 12, Type 0, BuildingBlock: CEKHIL_clean_sbu_0, # of connection points: 4
#     Node 13, Type 0, BuildingBlock: CEKHIL_clean_sbu_0, # of connection points: 4
#     Node 14, Type 0, BuildingBlock: CEKHIL_clean_sbu_0, # of connection points: 4
#     Node 15, Type 0, BuildingBlock: CEKHIL_clean_sbu_0, # of connection points: 4
#     Node 16, Type 0, BuildingBlock: CEKHIL_clean_sbu_0, # of connection points: 4
#     Node 17, Type 0, BuildingBlock: CEKHIL_clean_sbu_0, # of connection points: 4
#     Node 18, Type 0, BuildingBlock: CEKHIL_clean_sbu_0, # of connection points: 4
#     Node 19, Type 0, BuildingBlock: CEKHIL_clean_sbu_0, # of connection points: 4
#     Node 20, Type 0, BuildingBlock: CEKHIL_clean_sbu_0, # of connection points: 4
#     Node 21, Type 0, BuildingBlock: CEKHIL_clean_sbu_0, # of connection points: 4
#     Node 22, Type 0, BuildingBlock: CEKHIL_clean_sbu_0, # of connection points: 4
#     Node 23, Type 0, BuildingBlock: CEKHIL_clean_sbu_0, # of connection points: 4
#     Node 24, Type 1, BuildingBlock: INOVEN_clean_sbu_0, # of connection points: 6
#     Node 25, Type 1, BuildingBlock: INOVEN_clean_sbu_0, # of connection points: 6
#     Node 26, Type 1, BuildingBlock: INOVEN_clean_sbu_0, # of connection points: 6
#     Node 27, Type 1, BuildingBlock: INOVEN_clean_sbu_0, # of connection points: 6
#     Node 28, Type 1, BuildingBlock: INOVEN_clean_sbu_0, # of connection points: 6
#     Node 29, Type 1, BuildingBlock: INOVEN_clean_sbu_0, # of connection points: 6
#     Node 30, Type 1, BuildingBlock: INOVEN_clean_sbu_0, # of connection points: 6
#     Node 31, Type 1, BuildingBlock: INOVEN_clean_sbu_0, # of connection points: 6
#     Node 32, Type 1, BuildingBlock: INOVEN_clean_sbu_0, # of connection points: 6
#     Node 33, Type 1, BuildingBlock: INOVEN_clean_sbu_0, # of connection points: 6
#     Node 34, Type 1, BuildingBlock: INOVEN_clean_sbu_0, # of connection points: 6
#     Node 35, Type 1, BuildingBlock: INOVEN_clean_sbu_0, # of connection points: 6
#     Node 36, Type 1, BuildingBlock: INOVEN_clean_sbu_0, # of connection points: 6
#     Node 37, Type 1, BuildingBlock: INOVEN_clean_sbu_0, # of connection points: 6
#     Node 38, Type 1, BuildingBlock: INOVEN_clean_sbu_0, # of connection points: 6
#     Node 39, Type 1, BuildingBlock: INOVEN_clean_sbu_0, # of connection points: 6
#     Edge 40, Type (0, 1), BuildingBlock: XUDNAN_clean_linker_2, # of connection points: 2
#     Edge 41, Type (0, 1), BuildingBlock: XUDNAN_clean_linker_2, # of connection points: 2
#     Edge 42, Type (0, 1), BuildingBlock: XUDNAN_clean_linker_2, # of connection points: 2
#     Edge 43, Type (0, 1), BuildingBlock: XUDNAN_clean_linker_2, # of connection points: 2
#     Edge 44, Type (0, 1), BuildingBlock: XUDNAN_clean_linker_2, # of connection points: 2
#     Edge 45, Type (0, 1), BuildingBlock: XUDNAN_clean_linker_2, # of connection points: 2
#     Edge 46, Type (0, 1), BuildingBlock: XUDNAN_clean_linker_2, # of connection points: 2
#     Edge 47, Type (0, 1), BuildingBlock: XUDNAN_clean_linker_2, # of connection points: 2
#     Edge 48, Type (0, 1), BuildingBlock: XUDNAN_clean_linker_2, # of connection points: 2
#     Edge 49, Type (0, 1), BuildingBlock: XUDNAN_clean_linker_2, # of connection points: 2
#     Edge 50, Type (0, 1), BuildingBlock: XUDNAN_clean_linker_2, # of connection points: 2
#     Edge 51, Type (0, 1), BuildingBlock: XUDNAN_clean_linker_2, # of connection points: 2
#     Edge 52, Type (0, 1), BuildingBlock: XUDNAN_clean_linker_2, # of connection points: 2
#     Edge 53, Type (0, 1), BuildingBlock: XUDNAN_clean_linker_2, # of connection points: 2
#     Edge 54, Type (0, 1), BuildingBlock: XUDNAN_clean_linker_2, # of connection points: 2
#     Edge 55, Type (0, 1), BuildingBlock: XUDNAN_clean_linker_2, # of connection points: 2
#     Edge 56, Type (0, 1), BuildingBlock: XUDNAN_clean_linker_2, # of connection points: 2
#     Edge 57, Type (0, 1), BuildingBlock: XUDNAN_clean_linker_2, # of connection points: 2
#     Edge 58, Type (0, 1), BuildingBlock: XUDNAN_clean_linker_2, # of connection points: 2
#     Edge 59, Type (0, 1), BuildingBlock: XUDNAN_clean_linker_2, # of connection points: 2
#     Edge 60, Type (0, 1), BuildingBlock: XUDNAN_clean_linker_2, # of connection points: 2
#     Edge 61, Type (0, 1), BuildingBlock: XUDNAN_clean_linker_2, # of connection points: 2
#     Edge 62, Type (0, 1), BuildingBlock: XUDNAN_clean_linker_2, # of connection points: 2
#     Edge 63, Type (0, 1), BuildingBlock: XUDNAN_clean_linker_2, # of connection points: 2
#     Edge 64, Type (0, 1), BuildingBlock: XUDNAN_clean_linker_2, # of connection points: 2
#     Edge 65, Type (0, 1), BuildingBlock: XUDNAN_clean_linker_2, # of connection points: 2
#     Edge 66, Type (0, 1), BuildingBlock: XUDNAN_clean_linker_2, # of connection points: 2
#     Edge 67, Type (0, 1), BuildingBlock: XUDNAN_clean_linker_2, # of connection points: 2
#     Edge 68, Type (0, 1), BuildingBlock: XUDNAN_clean_linker_2, # of connection points: 2
#     Edge 69, Type (0, 1), BuildingBlock: XUDNAN_clean_linker_2, # of connection points: 2
#     Edge 70, Type (0, 1), BuildingBlock: XUDNAN_clean_linker_2, # of connection points: 2
#     Edge 71, Type (0, 1), BuildingBlock: XUDNAN_clean_linker_2, # of connection points: 2
#     Edge 72, Type (0, 1), BuildingBlock: XUDNAN_clean_linker_2, # of connection points: 2
#     Edge 73, Type (0, 1), BuildingBlock: XUDNAN_clean_linker_2, # of connection points: 2
#     Edge 74, Type (0, 1), BuildingBlock: XUDNAN_clean_linker_2, # of connection points: 2
#     Edge 75, Type (0, 1), BuildingBlock: XUDNAN_clean_linker_2, # of connection points: 2
#     Edge 76, Type (0, 1), BuildingBlock: XUDNAN_clean_linker_2, # of connection points: 2
#     Edge 77, Type (0, 1), BuildingBlock: XUDNAN_clean_linker_2, # of connection points: 2
#     Edge 78, Type (0, 1), BuildingBlock: XUDNAN_clean_linker_2, # of connection points: 2
#     Edge 79, Type (0, 1), BuildingBlock: XUDNAN_clean_linker_2, # of connection points: 2
#     Edge 80, Type (0, 1), BuildingBlock: XUDNAN_clean_linker_2, # of connection points: 2
#     Edge 81, Type (0, 1), BuildingBlock: XUDNAN_clean_linker_2, # of connection points: 2
#     Edge 82, Type (0, 1), BuildingBlock: XUDNAN_clean_linker_2, # of connection points: 2
#     Edge 83, Type (0, 1), BuildingBlock: XUDNAN_clean_linker_2, # of connection points: 2
#     Edge 84, Type (0, 1), BuildingBlock: XUDNAN_clean_linker_2, # of connection points: 2
#     Edge 85, Type (0, 1), BuildingBlock: XUDNAN_clean_linker_2, # of connection points: 2
#     Edge 86, Type (0, 1), BuildingBlock: XUDNAN_clean_linker_2, # of connection points: 2
#     Edge 87, Type (0, 1), BuildingBlock: XUDNAN_clean_linker_2, # of connection points: 2
#     Edge 88, Type (0, 1), BuildingBlock: XUDNAN_clean_linker_2, # of connection points: 2
#     Edge 89, Type (0, 1), BuildingBlock: XUDNAN_clean_linker_2, # of connection points: 2
#     Edge 90, Type (0, 1), BuildingBlock: XUDNAN_clean_linker_2, # of connection points: 2
#     Edge 91, Type (0, 1), BuildingBlock: XUDNAN_clean_linker_2, # of connection points: 2
#     Edge 92, Type (0, 1), BuildingBlock: XUDNAN_clean_linker_2, # of connection points: 2
#     Edge 93, Type (0, 1), BuildingBlock: XUDNAN_clean_linker_2, # of connection points: 2
#     Edge 94, Type (0, 1), BuildingBlock: XUDNAN_clean_linker_2, # of connection points: 2
#     Edge 95, Type (0, 1), BuildingBlock: XUDNAN_clean_linker_2, # of connection points: 2
#     Edge 96, Type (0, 1), BuildingBlock: XUDNAN_clean_linker_2, # of connection points: 2
#     Edge 97, Type (0, 1), BuildingBlock: XUDNAN_clean_linker_2, # of connection points: 2
#     Edge 98, Type (0, 1), BuildingBlock: XUDNAN_clean_linker_2, # of connection points: 2
#     Edge 99, Type (0, 1), BuildingBlock: XUDNAN_clean_linker_2, # of connection points: 2
#     Edge 100, Type (0, 1), BuildingBlock: XUDNAN_clean_linker_2, # of connection points: 2
#     Edge 101, Type (0, 1), BuildingBlock: XUDNAN_clean_linker_2, # of connection points: 2
#     Edge 102, Type (0, 1), BuildingBlock: XUDNAN_clean_linker_2, # of connection points: 2
#     Edge 103, Type (0, 1), BuildingBlock: XUDNAN_clean_linker_2, # of connection points: 2
#     Edge 104, Type (0, 1), BuildingBlock: XUDNAN_clean_linker_2, # of connection points: 2
#     Edge 105, Type (0, 1), BuildingBlock: XUDNAN_clean_linker_2, # of connection points: 2
#     Edge 106, Type (0, 1), BuildingBlock: XUDNAN_clean_linker_2, # of connection points: 2
#     Edge 107, Type (0, 1), BuildingBlock: XUDNAN_clean_linker_2, # of connection points: 2
#     Edge 108, Type (0, 1), BuildingBlock: XUDNAN_clean_linker_2, # of connection points: 2
#     Edge 109, Type (0, 1), BuildingBlock: XUDNAN_clean_linker_2, # of connection points: 2
#     Edge 110, Type (0, 1), BuildingBlock: XUDNAN_clean_linker_2, # of connection points: 2
#     Edge 111, Type (0, 1), BuildingBlock: XUDNAN_clean_linker_2, # of connection points: 2
#     Edge 112, Type (0, 1), BuildingBlock: XUDNAN_clean_linker_2, # of connection points: 2
#     Edge 113, Type (0, 1), BuildingBlock: XUDNAN_clean_linker_2, # of connection points: 2
#     Edge 114, Type (0, 1), BuildingBlock: XUDNAN_clean_linker_2, # of connection points: 2
#     Edge 115, Type (0, 1), BuildingBlock: XUDNAN_clean_linker_2, # of connection points: 2
#     Edge 116, Type (0, 1), BuildingBlock: XUDNAN_clean_linker_2, # of connection points: 2
#     Edge 117, Type (0, 1), BuildingBlock: XUDNAN_clean_linker_2, # of connection points: 2
#     Edge 118, Type (0, 1), BuildingBlock: XUDNAN_clean_linker_2, # of connection points: 2
#     Edge 119, Type (0, 1), BuildingBlock: XUDNAN_clean_linker_2, # of connection points: 2
#     Edge 120, Type (0, 1), BuildingBlock: XUDNAN_clean_linker_2, # of connection points: 2
#     Edge 121, Type (0, 1), BuildingBlock: XUDNAN_clean_linker_2, # of connection points: 2
#     Edge 122, Type (0, 1), BuildingBlock: XUDNAN_clean_linker_2, # of connection points: 2
#     Edge 123, Type (0, 1), BuildingBlock: XUDNAN_clean_linker_2, # of connection points: 2
#     Edge 124, Type (0, 1), BuildingBlock: XUDNAN_clean_linker_2, # of connection points: 2
#     Edge 125, Type (0, 1), BuildingBlock: XUDNAN_clean_linker_2, # of connection points: 2
#     Edge 126, Type (0, 1), BuildingBlock: XUDNAN_clean_linker_2, # of connection points: 2
#     Edge 127, Type (0, 1), BuildingBlock: XUDNAN_clean_linker_2, # of connection points: 2
#     Edge 128, Type (0, 1), BuildingBlock: XUDNAN_clean_linker_2, # of connection points: 2
#     Edge 129, Type (0, 1), BuildingBlock: XUDNAN_clean_linker_2, # of connection points: 2
#     Edge 130, Type (0, 1), BuildingBlock: XUDNAN_clean_linker_2, # of connection points: 2
#     Edge 131, Type (0, 1), BuildingBlock: XUDNAN_clean_linker_2, # of connection points: 2
#     Edge 132, Type (0, 1), BuildingBlock: XUDNAN_clean_linker_2, # of connection points: 2
#     Edge 133, Type (0, 1), BuildingBlock: XUDNAN_clean_linker_2, # of connection points: 2
#     Edge 134, Type (0, 1), BuildingBlock: XUDNAN_clean_linker_2, # of connection points: 2
#     Edge 135, Type (0, 1), BuildingBlock: XUDNAN_clean_linker_2, # of connection points: 2
# Relax obj value: 0.179
# Max RMSD: 0.305
# Mean RMSD: 0.156
data_MOF--net-gar--node1-CEKHIL_clean_sbu_0--node2-INOVEN_clean_sbu_0--edge1-XUDNAN_clean_linker_2
_symmetry_space_group_name_H-M    P1
_symmetry_Int_Tables_number       1
_symmetry_cell_setting            triclinic
loop_
_symmetry_equiv_pos_as_xyz
'x, y, z'
_cell_length_a     61.921662
_cell_length_b     55.680198
_cell_length_c     55.495137
_cell_angle_alpha  98.462089
_cell_angle_beta   95.19612
_cell_angle_gamma 102.12716
loop_
_atom_site_label
_atom_site_type_symbol
_atom_site_fract_x
_atom_site_fract_y
_atom_site_fract_z
_atom_type_partial_charge
Co0 Co 0.14357 0.37483 0.39605 0.0
O1 O 0.17331 0.37385 0.38937 0.0
O2 O 0.14288 0.3581 0.36285 0.0
C3 C 0.15201 0.41519 0.41356 0.0
O4 O 0.11038 0.3735 0.39559 0.0
Co5 Co 0.13224 0.38755 0.44912 0.0
O6 O 0.10388 0.39162 0.4323 0.0
C7 C 0.14003 0.33766 0.43125 0.0
C8 C 0.16448 0.36277 0.36739 0.0
C9 C 0.09752 0.38235 0.40974 0.0
O10 O 0.14037 0.34235 0.40918 0.0
O11 O 0.13884 0.35394 0.44966 0.0
O12 O 0.14802 0.40916 0.38981 0.0
O13 O 0.15213 0.39711 0.42557 0.0
Co14 Co 1.00499 0.7691 0.65784 0.0
O15 O 0.97427 0.7587 0.66226 0.0
O16 O 1.00279 0.76137 0.69049 0.0
C17 C 1.00165 0.80283 0.64112 0.0
O18 O 0.03873 0.77974 0.66 0.0
Co19 Co 1.01864 0.77067 0.60526 0.0
O20 O 0.04813 0.78849 0.62349 0.0
C21 C 1.00645 0.72253 0.62267 0.0
C22 C 0.98133 0.75664 0.68443 0.0
C23 C 0.05321 0.788 0.64618 0.0
O24 O 1.00609 0.73381 0.64454 0.0
O25 O 1.00882 0.73375 0.60418 0.0
O26 O 1.00337 0.80409 0.66479 0.0
O27 O 0.9997 0.78091 0.62855 0.0
Co28 Co 0.64529 0.86952 0.90152 0.0
O29 O 0.67642 0.86997 0.90387 0.0
O30 O 0.6521 0.85469 0.87035 0.0
C31 C 0.65039 0.90919 0.92008 0.0
O32 O 0.61249 0.86748 0.89136 0.0
Co33 Co 0.62097 0.87911 0.94731 0.0
O34 O 0.59764 0.88461 0.92331 0.0
C35 C 0.6293 0.82903 0.93121 0.0
C36 C 0.67262 0.86037 0.88071 0.0
C37 C 0.59684 0.87616 0.9006 0.0
O38 O 0.63837 0.8361 0.91268 0.0
O39 O 0.62221 0.84347 0.94724 0.0
O40 O 0.65189 0.90425 0.89679 0.0
O41 O 0.64702 0.89046 0.93157 0.0
Co42 Co 0.50769 0.26779 0.168 0.0
O43 O 0.47584 0.25704 0.16479 0.0
O44 O 0.49887 0.2587 0.19846 0.0
C45 C 0.50883 0.30223 0.15104 0.0
O46 O 0.54105 0.27818 0.17844 0.0
Co47 Co 0.53274 0.2717 0.12201 0.0
O48 O 0.55976 0.28514 0.14633 0.0
C49 C 0.51236 0.22262 0.13366 0.0
C50 C 0.47861 0.25373 0.18744 0.0
C51 C 0.55923 0.28485 0.1692 0.0
O52 O 0.50994 0.23273 0.15532 0.0
O53 O 0.51861 0.23515 0.11693 0.0
O54 O 0.50597 0.30282 0.17402 0.0
O55 O 0.5089 0.28069 0.13887 0.0
Co56 Co 0.11436 0.83485 0.13206 0.0
O57 O 0.08263 0.831 0.12397 0.0
O58 O 0.09874 0.83047 0.16083 0.0
C59 C 0.12201 0.86803 0.11134 0.0
O60 O 0.14673 0.83906 0.14882 0.0
Co61 Co 0.14607 0.82977 0.09444 0.0
O62 O 0.17091 0.84324 0.12125 0.0
C63 C 0.11674 0.78407 0.10417 0.0
C64 C 0.08048 0.82935 0.14672 0.0
C65 C 0.16691 0.84328 0.14331 0.0
O66 O 0.11061 0.79737 0.12226 0.0
O67 O 0.13 0.79367 0.08995 0.0
O68 O 0.1184 0.87119 0.13418 0.0
O69 O 0.12141 0.84516 0.10187 0.0
Co70 Co 0.53884 0.7885 0.41814 0.0
O71 O 0.57067 0.79376 0.42638 0.0
O72 O 0.55302 0.77992 0.38898 0.0
C73 C 0.53617 0.8257 0.43938 0.0
O74 O 0.50606 0.78223 0.40204 0.0
Co75 Co 0.50776 0.78398 0.45783 0.0
O76 O 0.48385 0.78455 0.43182 0.0
C77 C 0.53013 0.74332 0.44476 0.0
C78 C 0.57183 0.78635 0.40336 0.0
C79 C 0.48679 0.78261 0.40927 0.0
O80 O 0.53558 0.75319 0.42585 0.0
O81 O 0.52003 0.75367 0.46102 0.0
O82 O 0.54192 0.824 0.41737 0.0
O83 O 0.53384 0.80537 0.44863 0.0
Co84 Co 0.61221 0.33864 0.63872 0.0
O85 O 0.58048 0.33535 0.63156 0.0
O86 O 0.59684 0.33269 0.66757 0.0
C87 C 0.62047 0.37354 0.62033 0.0
O88 O 0.64511 0.34144 0.65376 0.0
Co89 Co 0.64122 0.33412 0.59753 0.0
O90 O 0.66684 0.3426 0.62356 0.0
C91 C 0.61372 0.28813 0.60875 0.0
C92 C 0.57845 0.33236 0.65401 0.0
C93 C 0.6645 0.34291 0.64615 0.0
O94 O 0.60818 0.30133 0.62733 0.0
O95 O 0.62583 0.29787 0.59362 0.0
O96 O 0.61645 0.37517 0.643 0.0
O97 O 0.61878 0.35099 0.60918 0.0
Co98 Co 0.03393 0.28463 0.91684 0.0
O99 O 0.06587 0.28892 0.9222 0.0
O100 O 0.04589 0.27543 0.886 0.0
C101 C 0.03343 0.32215 0.93909 0.0
O102 O 1.00008 0.27946 0.9042 0.0
Co103 Co 1.00724 0.28204 0.96104 0.0
O104 O 0.98305 0.28687 0.93772 0.0
C105 C 0.02764 0.24037 0.94474 0.0
C106 C 0.06546 0.28131 0.89893 0.0
C107 C 0.98273 0.28325 0.91445 0.0
O108 O 0.03096 0.24935 0.92479 0.0
O109 O 1.01953 0.25155 0.96236 0.0
O110 O 0.03743 0.3204 0.91639 0.0
O111 O 0.03173 0.30178 0.94805 0.0
Co112 Co 0.42731 0.06702 0.34345 0.0
O113 O 0.41487 0.09458 0.33653 0.0
O114 O 0.39589 0.05555 0.33469 0.0
C115 C 0.44944 0.08676 0.37804 0.0
O116 O 0.43268 0.03408 0.35018 0.0
Co117 Co 0.47708 0.06497 0.34598 0.0
O118 O 0.46854 0.03238 0.35712 0.0
C119 C 0.44924 0.05599 0.29776 0.0
C120 C 0.39585 0.07835 0.33239 0.0
C121 C 0.44787 1.0228 0.35601 0.0
O122 O 0.43192 0.0584 0.30811 0.0
O123 O 0.46863 0.05879 0.30947 0.0
O124 O 0.42826 0.07829 0.37845 0.0
O125 O 0.45621 0.08492 0.35662 0.0
Co126 Co 0.29516 0.19192 0.49524 0.0
O127 O 0.32708 0.19281 0.49796 0.0
O128 O 0.30067 0.16052 0.50143 0.0
C129 C 0.29337 0.21005 0.46078 0.0
O130 O 0.26107 0.18151 0.49293 0.0
Co131 Co 0.27428 0.23747 0.4992 0.0
O132 O 0.24506 0.21354 0.4896 0.0
C133 C 0.29445 0.22487 0.54466 0.0
C134 C 0.32172 0.16981 0.5015 0.0
C135 C 0.24363 0.19046 0.49001 0.0
O136 O 0.29783 0.20485 0.53203 0.0
O137 O 0.28629 0.24092 0.53477 0.0
O138 O 0.29336 0.1865 0.45905 0.0
O139 O 0.29583 0.22209 0.48302 0.0
Co140 Co 0.19656 0.02846 0.78667 0.0
O141 O 0.19247 0.99063 0.78365 0.0
O142 O 0.22334 1.01337 0.77859 0.0
C143 C 0.18076 0.034 0.82615 0.0
O144 O 0.21123 0.06785 0.78875 0.0
Co145 Co 0.16129 0.05778 0.78866 0.0
O146 O 0.18476 0.089 0.79469 0.0
C147 C 0.16694 0.03567 0.7384 0.0
C148 C 0.21288 0.99079 0.77963 0.0
C149 C 0.20497 0.08913 0.79197 0.0
O150 O 0.18284 0.02625 0.74864 0.0
O151 O 0.15603 0.04817 0.75188 0.0
O152 O 0.20115 0.03212 0.82421 0.0
O153 O 0.17007 0.0317 0.80445 0.0
Co154 Co 0.32136 0.9461 0.99024 0.0
O155 O 0.2921 0.95121 0.99457 0.0
O156 O 0.32161 0.98101 0.99257 0.0
C157 C 0.31086 0.91309 0.95969 0.0
O158 O 0.35383 0.94843 0.98551 0.0
Co159 Co 0.3354 0.89709 0.99886 0.0
O160 O 0.36434 0.91267 0.9892 0.0
C161 C 0.33543 0.93658 0.04102 0.0
C162 C 0.30064 0.97474 0.99522 0.0
C163 C 0.36843 0.93507 0.98538 0.0
O164 O 0.32925 0.95076 0.02683 0.0
O165 O 0.33773 0.91451 0.03354 0.0
O166 O 0.31285 0.93561 0.95504 0.0
O167 O 0.3132 0.91109 0.98259 0.0
Co168 Co 0.3406 0.41367 0.04222 0.0
O169 O 0.30876 0.41171 0.04043 0.0
O170 O 0.33467 0.44474 0.05797 0.0
C171 C 0.3396 0.39756 1.00172 0.0
O172 O 0.3749 0.42453 0.04596 0.0
Co173 Co 0.36029 0.36814 0.03324 0.0
O174 O 0.38689 0.3923 0.02711 0.0
C175 C 0.34194 0.37829 0.07972 0.0
C176 C 0.31363 0.43482 0.05123 0.0
C177 C 0.39015 0.41534 0.03614 0.0
O178 O 0.34045 0.39981 0.07448 0.0
O179 O 0.34796 0.36195 0.06468 0.0
O180 O 0.33996 0.42088 1.00898 0.0
O181 O 0.33825 0.38397 0.01885 0.0
Co182 Co 0.81276 0.15179 0.02541 0.0
O183 O 0.84234 0.15891 0.01708 0.0
O184 O 0.82915 0.12885 0.03753 0.0
C185 C 0.7957 0.15288 0.98837 0.0
O186 O 0.78246 0.13961 0.03643 0.0
Co187 Co 0.7866 0.19401 0.02224 0.0
O188 O 0.7621 0.16751 0.02881 0.0
C189 C 0.82077 0.19892 0.06391 0.0
C190 C 0.8457 0.14059 0.02769 0.0
C191 C 0.76411 0.14708 0.03565 0.0
O192 O 0.82228 0.17627 0.05707 0.0
O193 O 0.80948 0.21032 0.05097 0.0
O194 O 0.80163 0.13265 0.9923 0.0
O195 O 0.80258 0.17198 1.00548 0.0
Co196 Co 0.21676 0.54561 0.24202 0.0
O197 O 0.21969 0.51264 0.24492 0.0
O198 O 0.2412 0.5386 0.22541 0.0
C199 C 0.21319 0.55734 0.28165 0.0
O200 O 0.21976 0.58099 0.23625 0.0
Co201 Co 0.174 0.56402 0.25306 0.0
O202 O 0.19331 0.59752 0.25306 0.0
C203 C 0.17444 0.53117 0.20637 0.0
C204 C 0.23699 0.51748 0.23332 0.0
C205 C 0.21108 0.5995 0.24284 0.0
O206 O 0.19553 0.53327 0.21106 0.0
O207 O 0.16256 0.53971 0.22178 0.0
O208 O 0.23284 0.55788 0.27501 0.0
O209 O 0.1966 0.5478 0.26476 0.0
Co210 Co 0.84166 0.91611 0.54139 0.0
O211 O 0.80924 0.90913 0.53917 0.0
O212 O 0.83181 0.94558 0.55446 0.0
C213 C 0.84308 0.89653 0.50274 0.0
O214 O 0.8751 0.93223 0.5455 0.0
Co215 Co 0.87014 0.87699 0.53757 0.0
O216 O 0.89593 0.90469 0.53582 0.0
C217 C 0.84835 0.88622 0.58221 0.0
C218 C 0.81156 0.9324 0.54886 0.0
C219 C 0.89401 0.92706 0.54169 0.0
O220 O 0.84386 0.90598 0.57526 0.0
O221 O 0.85686 0.87093 0.56863 0.0
O222 O 0.83956 0.91893 0.5064 0.0
O223 O 0.84427 0.88621 0.52207 0.0
Co224 Co 0.94977 0.08178 0.26798 0.0
O225 O 0.95489 0.1197 0.27246 0.0
O226 O 0.92295 0.09661 0.25841 0.0
C227 C 0.96681 0.07955 0.30862 0.0
O228 O 0.93479 0.04225 0.26299 0.0
Co229 Co 0.98604 0.05294 0.26865 0.0
O230 O 0.96245 0.02343 0.27157 0.0
C231 C 0.9793 0.07288 0.22299 0.0
C232 C 0.9342 0.11949 0.2655 0.0
C233 C 0.94166 1.02212 0.26675 0.0
O234 O 0.96148 0.0791 0.23172 0.0
O235 O 0.99251 0.06403 0.23645 0.0
O236 O 0.94697 0.08343 0.30418 0.0
O237 O 0.97675 0.0796 0.28902 0.0
Co238 Co 0.33095 0.66256 0.53985 0.0
O239 O 0.36086 0.66072 0.53462 0.0
O240 O 0.34011 0.63844 0.55765 0.0
C241 C 0.31784 0.66134 0.50038 0.0
O242 O 0.29943 0.6583 0.54858 0.0
Co243 Co 0.3118 0.70759 0.52786 0.0
O244 O 0.28318 0.68654 0.53359 0.0
C245 C 0.34427 0.71391 0.5714 0.0
C246 C 0.35869 0.6435 0.54826 0.0
C247 C 0.2824 0.66739 0.54381 0.0
O248 O 0.34207 0.69012 0.56912 0.0
O249 O 0.33588 0.72454 0.55515 0.0
O250 O 0.31948 0.64077 0.50805 0.0
O251 O 0.32632 0.68157 0.51578 0.0
Co252 Co 0.44832 0.57929 0.76638 0.0
O253 O 0.45083 0.61768 0.77113 0.0
O254 O 0.42092 0.59156 0.75553 0.0
C255 C 0.46566 0.57654 0.80675 0.0
O256 O 0.43245 0.54026 0.76086 0.0
Co257 Co 0.48057 0.54598 0.7666 0.0
O258 O 0.45639 0.51728 0.77059 0.0
C259 C 0.47656 0.56765 0.72103 0.0
C260 C 0.42988 0.61502 0.76284 0.0
C261 C 0.43641 0.51891 0.76519 0.0
O262 O 0.46061 0.57737 0.73049 0.0
O263 O 0.48702 0.55509 0.73353 0.0
O264 O 0.44581 0.58064 0.80262 0.0
O265 O 0.47529 0.57581 0.78691 0.0
Co266 Co 0.71274 0.03907 0.74854 0.0
O267 O 0.71917 1.00714 0.73815 0.0
O268 O 0.74061 0.04369 0.73509 0.0
C269 C 0.70345 0.03109 0.7851 0.0
O270 O 0.71261 0.0756 0.75796 0.0
Co271 Co 0.66653 0.04615 0.76143 0.0
O272 O 0.68269 0.08067 0.77636 0.0
C273 C 0.67382 0.03074 0.70991 0.0
C274 C 0.73752 1.01958 0.73217 0.0
C275 C 0.70174 0.08936 0.77024 0.0
O276 O 0.69509 0.03662 0.71561 0.0
O277 O 0.65995 0.03101 0.72566 0.0
O278 O 0.72427 0.03877 0.78248 0.0
O279 O 0.68927 0.02748 0.76571 0.0
Co280 Co 0.79982 0.69873 0.99754 0.0
O281 O 0.83199 0.70833 0.99933 0.0
O282 O 0.81334 0.67276 1.00758 0.0
C283 C 0.79328 0.71001 0.96 0.0
O284 O 0.76736 0.68038 0.99699 0.0
Co285 Co 0.76915 0.73333 0.99778 0.0
O286 O 0.74319 0.70453 0.99297 0.0
C287 C 0.79441 0.73255 0.04465 0.0
C288 C 0.83246 0.68692 1.00578 0.0
C289 C 0.74722 0.68339 0.99472 0.0
O290 O 0.80172 0.71468 0.03313 0.0
O291 O 0.78158 0.74384 0.03364 0.0
O292 O 0.79732 0.68849 0.9624 0.0
O293 O 0.79379 0.72502 0.98053 0.0
Co294 Co 0.92445 0.56521 0.82697 0.0
O295 O 0.91193 0.59433 0.83084 0.0
O296 O 0.89412 0.55625 0.81244 0.0
C297 C 0.94141 0.57011 0.86534 0.0
O298 O 0.92985 0.53057 0.82032 0.0
Co299 Co 0.97464 0.56526 0.83285 0.0
O300 O 0.96549 0.52813 0.82734 0.0
C301 C 0.95431 0.58141 0.78965 0.0
C302 C 0.89359 0.57934 0.81951 0.0
C303 C 0.94489 0.51799 0.82144 0.0
O304 O 0.9347 0.57274 0.79494 0.0
O305 O 0.97211 0.58263 0.8039 0.0
O306 O 0.92011 0.56067 0.8604 0.0
O307 O 0.95125 0.57838 0.84768 0.0
Co308 Co 0.83046 0.4622 0.49678 0.0
O309 O 0.80012 0.46469 0.49942 0.0
O310 O 0.83019 0.4954 0.51129 0.0
C311 C 0.82459 0.44102 0.45837 0.0
O312 O 0.86374 0.46838 0.49681 0.0
Co313 Co 0.84759 0.41353 0.48702 0.0
O314 O 0.87657 0.43492 0.48301 0.0
C315 C 0.83645 0.43201 0.53639 0.0
C316 C 0.80872 0.48787 0.50926 0.0
C317 C 0.8796 0.45822 0.49057 0.0
O318 O 0.83282 0.45213 0.5299 0.0
O319 O 0.84124 0.41432 0.52185 0.0
O320 O 0.82684 0.46511 0.46217 0.0
O321 O 0.82462 0.43055 0.47757 0.0
Co322 Co 0.69696 0.52765 0.28523 0.0
O323 O 0.69243 0.4897 0.28265 0.0
O324 O 0.72326 0.51198 0.27689 0.0
C325 C 0.68106 0.53454 0.32451 0.0
O326 O 0.7135 0.5662 0.28709 0.0
Co327 Co 0.66625 0.56183 0.28705 0.0
O328 O 0.69075 0.59232 0.29076 0.0
C329 C 0.66793 0.53551 0.23702 0.0
C330 C 0.71276 0.48958 0.27827 0.0
C331 C 0.71025 0.58896 0.28905 0.0
O332 O 0.6832 0.52524 0.24722 0.0
O333 O 0.65871 0.55006 0.25053 0.0
O334 O 0.70118 0.53145 0.32274 0.0
O335 O 0.67075 0.53338 0.30277 0.0
Gd336 Gd 0.06057 0.04045 1.00783 0.0
Gd337 Gd 0.09341 0.06574 0.03887 0.0
C338 C 0.07039 0.09799 1.00941 0.0
C339 C 1.0214 0.02379 0.98283 0.0
C340 C 1.00009 0.03137 0.98488 0.0
C341 C 0.99131 0.04236 0.96622 0.0
C342 C 0.98979 0.03051 1.00642 0.0
C343 C 0.96465 0.05499 0.99215 0.0
C344 C 0.9722 0.04224 1.01002 0.0
C345 C 0.97378 0.05412 0.96983 0.0
C346 C 0.09739 0.04194 0.98096 0.0
C347 C 0.08668 1.00671 0.03311 0.0
C348 C 0.13174 0.0846 0.06507 0.0
C349 C 0.15467 0.08487 0.05992 0.0
C350 C 0.1685 0.07567 0.07592 0.0
C351 C 0.16165 0.09029 0.03752 0.0
C352 C 0.19461 0.07425 0.04592 0.0
C353 C 0.18159 0.08515 0.03063 0.0
C354 C 0.18827 0.07028 0.06893 0.0
C355 C 0.05609 0.06484 0.0648 0.0
O356 O 0.0539 0.07937 1.01072 0.0
O357 O 0.09044 0.09534 0.016 0.0
O358 O 0.03709 0.04015 0.97626 0.0
O359 O 0.02884 1.0135 1.00052 0.0
O360 O 0.08083 1.02316 0.98015 0.0
O361 O 0.09436 0.05963 0.99723 0.0
O362 O 0.10159 0.02785 0.03817 0.0
O363 O 0.06703 1.00647 0.02207 0.0
O364 O 0.11982 0.06253 0.06566 0.0
O365 O 0.12071 0.09771 0.05325 0.0
O366 O 0.07239 0.08371 0.06509 0.0
O367 O 0.05977 0.04677 0.04949 0.0
H368 H 0.9988 0.04305 0.94935 0.0
H369 H 0.996 1.02187 0.02102 0.0
H370 H 0.96549 0.04266 0.02741 0.0
H371 H 0.968 0.06348 0.95558 0.0
H372 H 0.16335 0.07122 0.0932 0.0
H373 H 0.15118 0.09721 0.02476 0.0
H374 H 0.18609 0.08818 1.01272 0.0
H375 H 0.19814 0.06201 0.08106 0.0
Gd376 Gd 0.33505 0.82056 0.26399 0.0
Gd377 Gd 0.31115 0.81354 0.30453 0.0
C378 C 0.34315 0.86672 0.30593 0.0
C379 C 0.34701 0.82742 0.22188 0.0
C380 C 0.34884 0.8498 0.21016 0.0
C381 C 0.32987 0.85449 0.19751 0.0
C382 C 0.36912 0.8676 0.21303 0.0
C383 C 0.3513 0.89434 0.19105 0.0
C384 C 0.37034 0.88966 0.20353 0.0
C385 C 0.33106 0.87655 0.18819 0.0
C386 C 0.36099 0.80936 0.30113 0.0
C387 C 0.30631 0.76594 0.2663 0.0
C388 C 0.29375 0.80581 0.34389 0.0
C389 C 0.28731 0.78206 0.35274 0.0
C390 C 0.26796 0.77672 0.36405 0.0
C391 C 0.29965 0.76377 0.34822 0.0
C392 C 0.27479 0.73601 0.36877 0.0
C393 C 0.29354 0.74104 0.35626 0.0
C394 C 0.26169 0.75383 0.37195 0.0
C395 C 0.28647 0.82456 0.26597 0.0
O396 O 0.34154 0.86047 0.28193 0.0
O397 O 0.33394 0.85071 0.31926 0.0
O398 O 0.36131 0.82926 0.24122 0.0
O399 O 0.32687 0.81609 0.22464 0.0
O400 O 0.36782 0.82518 0.28709 0.0
O401 O 0.34059 0.799 0.29432 0.0
O402 O 0.30856 0.77384 0.28998 0.0
O403 O 0.31369 0.78137 0.25148 0.0
O404 O 0.28201 0.80726 0.32368 0.0
O405 O 0.31511 0.81439 0.34387 0.0
O406 O 0.2796 0.80711 0.27825 0.0
O407 O 0.30635 0.83553 0.27442 0.0
H408 H 0.31399 0.84116 0.19484 0.0
H409 H 0.38403 0.86455 0.22273 0.0
H410 H 0.38619 0.90298 0.20575 0.0
H411 H 0.31625 0.87928 0.17801 0.0
H412 H 0.25786 0.79034 0.367 0.0
H413 H 0.3143 0.76722 0.33888 0.0
H414 H 0.30421 0.728 0.35375 0.0
H415 H 0.24698 0.75038 0.38124 0.0
Gd416 Gd 0.59206 0.05635 0.53043 0.0
Gd417 Gd 0.54219 0.04985 0.54284 0.0
C418 C 0.55712 1.00106 0.51893 0.0
C419 C 0.63303 0.05265 0.52903 0.0
C420 C 0.64795 0.03531 0.53235 0.0
C421 C 0.66262 0.03138 0.51504 0.0
C422 C 0.64931 0.02448 0.55363 0.0
C423 C 0.68116 1.00831 0.54133 0.0
C424 C 0.66584 1.01132 0.55816 0.0
C425 C 0.67894 1.01787 0.51938 0.0
C426 C 0.56359 0.07019 0.4986 0.0
C427 C 0.57691 0.10504 0.55543 0.0
C428 C 0.50066 0.05152 0.54369 0.0
C429 C 0.48373 0.06547 0.53649 0.0
C430 C 0.4826 0.08859 0.54998 0.0
C431 C 0.46709 0.05424 0.51676 0.0
C432 C 0.44745 0.08757 0.52547 0.0
C433 C 0.44929 0.06516 0.51128 0.0
C434 C 0.46467 0.09959 0.54443 0.0
C435 C 0.57107 0.03672 0.57476 0.0
O436 O 0.57807 1.01417 0.52228 0.0
O437 O 0.54013 1.01124 0.52336 0.0
O438 O 0.61821 0.04711 0.50945 0.0
O439 O 0.62558 0.06245 0.54868 0.0
O440 O 0.58493 0.07954 0.50148 0.0
O441 O 0.55915 0.05237 0.51019 0.0
O442 O 0.55613 0.09158 0.55152 0.0
O443 O 0.59423 0.0954 0.55052 0.0
O444 O 0.51617 0.06179 0.56221 0.0
O445 O 0.50798 0.03862 0.52579 0.0
O446 O 0.54987 0.02656 0.57139 0.0
O447 O 0.57512 0.0546 0.5633 0.0
H448 H 0.66199 0.03954 0.4985 0.0
H449 H 0.63809 0.02685 0.56718 0.0
H450 H 0.66694 1.00395 0.57513 0.0
H451 H 0.69054 1.01601 0.50611 0.0
H452 H 0.49513 0.09778 0.5653 0.0
H453 H 0.46741 0.03647 0.50598 0.0
H454 H 0.4365 0.05559 0.49631 0.0
H455 H 0.4637 0.11682 0.55576 0.0
Gd456 Gd 0.29711 0.30914 0.77022 0.0
Gd457 Gd 0.34483 0.29693 0.78029 0.0
C458 C 0.32302 0.31997 0.82639 0.0
C459 C 0.25451 0.30631 0.7693 0.0
C460 C 0.23643 0.30012 0.7849 0.0
C461 C 0.24008 0.30792 0.81049 0.0
C462 C 0.2148 0.28781 0.77397 0.0
C463 C 0.20066 0.29166 0.81388 0.0
C464 C 0.19714 0.28361 0.78824 0.0
C465 C 0.22247 0.30386 0.82473 0.0
C466 C 0.32953 0.3509 0.76497 0.0
C467 C 0.31873 0.2859 0.72409 0.0
C468 C 0.38743 0.29932 0.78174 0.0
C469 C 0.40554 0.30439 0.76596 0.0
C470 C 0.40188 0.29546 0.74055 0.0
C471 C 0.42716 0.31714 0.77657 0.0
C472 C 0.44121 0.31172 0.73671 0.0
C473 C 0.44476 0.32077 0.76217 0.0
C474 C 0.41944 0.29899 0.72618 0.0
C475 C 0.3109 0.25593 0.78496 0.0
O476 O 0.30423 0.31611 0.81144 0.0
O477 O 0.34155 0.31498 0.81876 0.0
O478 O 0.26983 0.32668 0.77756 0.0
O479 O 0.26275 0.28812 0.75889 0.0
O480 O 0.30805 0.34787 0.76111 0.0
O481 O 0.33281 0.33012 0.77042 0.0
O482 O 0.33761 0.28925 0.73884 0.0
O483 O 0.30039 0.29112 0.73198 0.0
O484 O 0.37207 0.27879 0.77451 0.0
O485 O 0.37922 0.31807 0.79085 0.0
O486 O 0.33213 0.25692 0.78857 0.0
O487 O 0.30972 0.27732 0.78003 0.0
H488 H 0.2565 0.3176 0.81951 0.0
H489 H 0.21147 0.28168 0.75427 0.0
H490 H 0.18076 0.27389 0.77916 0.0
H491 H 0.22597 0.3108 0.84427 0.0
H492 H 0.38547 0.28543 0.73178 0.0
H493 H 0.43048 0.32415 0.79613 0.0
H494 H 0.4611 0.33094 0.77099 0.0
H495 H 0.41594 0.29131 0.70678 0.0
Gd496 Gd 0.0714 0.08206 0.53274 0.0
Gd497 Gd 0.07243 0.02897 0.50814 0.0
C498 C 0.04755 0.06282 0.4742 0.0
C499 C 0.08557 0.12959 0.54358 0.0
C500 C 0.09323 0.14883 0.52871 0.0
C501 C 0.11309 0.16677 0.53691 0.0
C502 C 0.08166 0.14855 0.50565 0.0
C503 C 0.10957 0.18417 0.49934 0.0
C504 C 0.08975 0.16605 0.49113 0.0
C505 C 0.12119 0.18431 0.52238 0.0
C506 C 0.03628 0.04993 0.545 0.0
C507 C 0.09406 0.04666 0.56695 0.0
C508 C 0.0614 0.98193 0.49137 0.0
C509 C 0.05741 0.9614 0.50547 0.0
C510 C 0.07035 0.96353 0.52814 0.0
C511 C 0.03838 0.94193 0.49867 0.0
C512 C 0.04404 0.92869 0.53816 0.0
C513 C 0.03181 0.92552 0.51485 0.0
C514 C 0.06372 0.94734 0.54432 0.0
C515 C 0.10764 0.06567 0.50395 0.0
O516 O 0.05228 0.08068 0.49422 0.0
O517 O 0.05417 0.04148 0.47494 0.0
O518 O 0.06429 0.11864 0.53954 0.0
O519 O 0.09859 0.11407 0.54608 0.0
O520 O 0.04096 0.07393 0.55232 0.0
O521 O 0.05094 0.04461 0.53203 0.0
O522 O 0.08585 0.02778 0.54832 0.0
O523 O 0.0919 0.06964 0.5644 0.0
O524 O 0.08196 0.99494 0.49355 0.0
O525 O 0.04686 0.99591 0.49297 0.0
O526 O 0.10953 0.0432 0.50594 0.0
O527 O 0.08747 0.06649 0.50275 0.0
H528 H 0.12244 0.16706 0.55446 0.0
H529 H 0.06646 0.13467 0.49869 0.0
H530 H 0.08027 0.16562 0.47362 0.0
H531 H 0.13665 0.19785 0.52908 0.0
H532 H 0.08502 0.97847 0.53394 0.0
H533 H 0.02799 0.94025 0.48144 0.0
H534 H 1.0165 0.91135 0.50975 0.0
H535 H 0.07363 0.94991 0.56202 0.0
Gd536 Gd 0.34103 0.82156 0.77786 0.0
Gd537 Gd 0.29927 0.78303 0.75893 0.0
C538 C 0.34391 0.75966 0.76873 0.0
C539 C 0.37608 0.84813 0.8055 0.0
C540 C 0.40026 0.84971 0.80947 0.0
C541 C 0.4145 0.86103 0.79396 0.0
C542 C 0.4095 0.84148 0.82992 0.0
C543 C 0.44677 0.85688 0.81993 0.0
C544 C 0.43254 0.84492 0.83504 0.0
C545 C 0.43752 0.86455 0.79914 0.0
C546 C 0.33568 0.80793 0.72888 0.0
C547 C 0.2957 0.84413 0.7675 0.0
C548 C 0.26366 0.75883 0.7307 0.0
C549 C 0.24197 0.76425 0.72325 0.0
C550 C 0.22974 0.7747 0.74049 0.0
C551 C 0.23426 0.76072 0.69816 0.0
C552 C 0.20286 0.7788 0.70743 0.0
C553 C 0.21496 0.76804 0.6903 0.0
C554 C 0.2102 0.78171 0.73261 0.0
C555 C 0.30606 0.79771 0.80786 0.0
O556 O 0.35425 0.7837 0.77789 0.0
O557 O 0.3224 0.75517 0.75954 0.0
O558 O 0.36826 0.85387 0.78489 0.0
O559 O 0.36291 0.82916 0.81216 0.0
O560 O 0.34476 0.83047 0.74003 0.0
O561 O 0.33102 0.79388 0.74438 0.0
O562 O 0.28646 0.82011 0.75786 0.0
O563 O 0.31699 0.84942 0.7778 0.0
O564 O 0.26789 0.75569 0.75349 0.0
O565 O 0.28066 0.77231 0.72272 0.0
O566 O 0.29679 0.77476 0.79782 0.0
O567 O 0.30954 0.81091 0.79161 0.0
H568 H 0.40795 0.86772 0.7781 0.0
H569 H 0.39896 0.83297 0.84234 0.0
H570 H 0.43924 0.83913 0.8514 0.0
H571 H 0.44811 0.87364 0.78709 0.0
H572 H 0.2355 0.77794 0.75996 0.0
H573 H 0.24349 0.75282 0.68458 0.0
H574 H 0.2095 0.76536 0.67079 0.0
H575 H 0.20119 0.79009 0.74613 0.0
Gd576 Gd 0.56742 0.03475 0.06434 0.0
Gd577 Gd 0.57063 0.05573 0.01644 0.0
C578 C 0.52541 1.02028 0.0207 0.0
C579 C 0.55644 1.02124 0.10487 0.0
C580 C 0.5369 1.01896 0.11801 0.0
C581 C 0.53923 1.01564 0.14248 0.0
C582 C 0.51638 1.02155 0.107 0.0
C583 C 0.50082 1.01835 0.14542 0.0
C584 C 0.49841 1.02119 0.12062 0.0
C585 C 0.52141 1.0154 0.1561 0.0
C586 C 0.58914 1.01145 0.03222 0.0
C587 C 0.6138 0.06761 0.05735 0.0
C588 C 0.5823 0.06996 0.97634 0.0
C589 C 0.60094 0.06829 0.96217 0.0
C590 C 0.60274 0.07963 0.94129 0.0
C591 C 0.61557 0.05321 0.96784 0.0
C592 C 0.63167 0.05826 0.93015 0.0
C593 C 0.63077 0.04808 0.9518 0.0
C594 C 0.61811 0.07469 0.92536 0.0
C595 C 0.54933 0.07932 0.04952 0.0
O596 O 0.53203 0.02371 0.0446 0.0
O597 O 0.53886 0.02796 1.005 0.0
O598 O 0.55465 1.00546 0.08443 0.0
O599 O 0.56637 0.04404 0.10331 0.0
O600 O 0.59391 1.01399 0.05579 0.0
O601 O 0.57207 1.01943 0.02678 0.0
O602 O 0.6059 0.06408 0.03393 0.0
O603 O 0.60141 0.06027 0.07423 0.0
O604 O 0.58704 0.08469 0.99769 0.0
O605 O 0.56886 0.04859 0.97698 0.0
O606 O 0.54461 0.0772 0.02598 0.0
O607 O 0.56638 0.07117 0.05434 0.0
H608 H 0.55506 1.0139 0.15127 0.0
H609 H 0.5144 0.02432 0.08809 0.0
H610 H 0.48278 0.02346 0.11187 0.0
H611 H 0.52411 1.01387 0.17532 0.0
H612 H 0.59152 0.09126 0.93667 0.0
H613 H 0.61441 0.04439 0.98396 0.0
H614 H 0.64095 0.03511 0.95559 0.0
H615 H 0.6184 0.0824 0.90853 0.0
Gd616 Gd 0.33063 0.31695 0.28229 0.0
Gd617 Gd 0.29573 0.26819 0.25783 0.0
C618 C 0.27926 0.31879 0.27497 0.0
C619 C 0.36141 0.35722 0.29103 0.0
C620 C 0.35865 0.38285 0.29389 0.0
C621 C 0.37259 0.4006 0.2834 0.0
C622 C 0.33891 0.38774 0.30171 0.0
C623 C 0.34494 0.42589 0.28449 0.0
C624 C 0.33204 0.40891 0.29693 0.0
C625 C 0.36586 0.42217 0.27891 0.0
C626 C 0.31037 0.29049 0.31423 0.0
C627 C 0.34774 0.2673 0.26164 0.0
C628 C 0.26856 0.22596 0.25563 0.0
C629 C 0.2735 0.20521 0.26672 0.0
C630 C 0.25785 0.18269 0.2653 0.0
C631 C 0.29498 0.2082 0.27869 0.0
C632 C 0.2858 0.16608 0.28719 0.0
C633 C 0.30121 0.18881 0.28835 0.0
C634 C 0.26396 0.16316 0.27561 0.0
C635 C 0.30578 0.29865 0.22387 0.0
O636 O 0.29995 0.33231 0.27796 0.0
O637 O 0.27415 0.2942 0.26957 0.0
O638 O 0.35485 0.3447 0.30831 0.0
O639 O 0.3543 0.34463 0.2689 0.0
O640 O 0.31607 0.31466 0.31727 0.0
O641 O 0.31665 0.28089 0.29447 0.0
O642 O 0.32704 0.25451 0.25499 0.0
O643 O 0.35283 0.29082 0.27265 0.0
O644 O 0.28032 0.2313 0.23782 0.0
O645 O 0.26815 0.2457 0.27155 0.0
O646 O 0.29196 0.27698 0.2186 0.0
O647 O 0.31279 0.30194 0.24632 0.0
H648 H 0.3878 0.39694 0.27703 0.0
H649 H 0.32771 0.37409 0.3095 0.0
H650 H 0.31564 0.41058 0.30115 0.0
H651 H 0.3764 0.43509 0.26975 0.0
H652 H 0.24113 0.18019 0.25615 0.0
H653 H 0.30718 0.22554 0.28027 0.0
H654 H 0.31836 0.19167 0.29635 0.0
H655 H 0.25174 0.14584 0.27441 0.0
Gd656 Gd 0.56743 0.57376 0.03177 0.0
Gd657 Gd 0.57221 0.52336 1.00429 0.0
C658 C 0.54929 0.55728 0.97031 0.0
C659 C 0.57124 0.62111 0.04362 0.0
C660 C 0.57719 0.6421 0.03024 0.0
C661 C 0.59695 0.66022 0.03857 0.0
C662 C 0.56461 0.64318 1.00816 0.0
C663 C 0.59224 0.67923 1.00236 0.0
C664 C 0.57203 0.66173 0.99443 0.0
C665 C 0.60447 0.67853 0.0247 0.0
C666 C 0.53402 0.53429 0.03482 0.0
C667 C 0.5912 0.54078 0.06541 0.0
C668 C 0.56412 0.47546 0.99354 0.0
C669 C 0.55559 0.45779 1.00948 0.0
C670 C 0.56038 0.43413 1.00718 0.0
C671 C 0.54497 0.46602 0.02931 0.0
C672 C 0.54455 0.42758 0.04506 0.0
C673 C 0.53916 0.45099 0.04666 0.0
C674 C 0.55492 0.4191 0.02489 0.0
C675 C 0.60941 0.55751 1.0007 0.0
O676 O 0.55318 0.57413 0.99118 0.0
O677 O 0.55558 0.53568 0.97034 0.0
O678 O 0.552 0.60542 0.03638 0.0
O679 O 0.5874 0.61004 0.0485 0.0
O680 O 0.54079 0.55336 0.05248 0.0
O681 O 0.5445 0.53833 0.01693 0.0
O682 O 0.58434 0.52268 0.04567 0.0
O683 O 0.58764 0.56331 0.06407 0.0
O684 O 0.584 0.4892 1.00161 0.0
O685 O 0.55032 0.48846 0.98603 0.0
O686 O 0.60498 0.53445 0.98986 0.0
O687 O 0.59307 0.56159 1.01149 0.0
H688 H 0.60694 0.65976 0.0555 0.0
H689 H 0.54938 0.62937 1.00115 0.0
H690 H 0.56233 0.66194 0.97723 0.0
H691 H 0.61997 0.69206 0.03133 0.0
H692 H 0.56904 0.4277 0.99228 0.0
H693 H 0.54193 0.48455 0.03191 0.0
H694 H 0.53082 0.45799 0.0616 0.0
H695 H 0.55956 0.40129 0.02326 0.0
Gd696 Gd 0.84778 0.32761 0.26802 0.0
Gd697 Gd 0.80661 0.28732 0.27151 0.0
C698 C 0.85367 0.26784 0.27371 0.0
C699 C 0.88543 0.35893 0.2827 0.0
C700 C 0.9095 0.36169 0.28872 0.0
C701 C 0.92279 0.38584 0.2957 0.0
C702 C 0.91852 0.34119 0.29245 0.0
C703 C 0.95273 0.36933 0.31345 0.0
C704 C 0.94012 0.34499 0.30462 0.0
C705 C 0.94422 0.38966 0.30802 0.0
C706 C 0.82992 0.29834 0.22517 0.0
C707 C 0.79974 0.34635 0.2656 0.0
C708 C 0.7678 0.25823 0.25875 0.0
C709 C 0.74502 0.26205 0.25675 0.0
C710 C 0.7398 0.28263 0.27092 0.0
C711 C 0.729 0.24664 0.23841 0.0
C712 C 0.70312 0.27317 0.24726 0.0
C713 C 0.70821 0.25214 0.23369 0.0
C714 C 0.71892 0.28808 0.26629 0.0
C715 C 0.82486 0.31838 0.31355 0.0
O716 O 0.86291 0.29231 0.27404 0.0
O717 O 0.83144 0.26096 0.27221 0.0
O718 O 0.87662 0.3536 0.25958 0.0
O719 O 0.87313 0.34729 0.29728 0.0
O720 O 0.83938 0.32192 0.22689 0.0
O721 O 0.83153 0.29192 0.24597 0.0
O722 O 0.7909 0.3219 0.26531 0.0
O723 O 0.82204 0.35351 0.26705 0.0
O724 O 0.7785 0.26163 0.28098 0.0
O725 O 0.78 0.26811 0.24303 0.0
O726 O 0.81494 0.29522 0.31344 0.0
O727 O 0.8227 0.32306 0.2923 0.0
H728 H 0.91604 0.40188 0.29319 0.0
H729 H 0.90836 0.32241 0.28745 0.0
H730 H 0.94629 0.32903 0.3087 0.0
H731 H 0.9537 0.40858 0.31449 0.0
H732 H 0.7521 0.29497 0.28495 0.0
H733 H 0.73284 0.23082 0.22718 0.0
H734 H 0.69622 0.24013 0.21914 0.0
H735 H 0.71549 0.3045 0.27689 0.0
Gd736 Gd 0.08453 0.55193 0.56433 0.0
Gd737 Gd 0.0824 0.56376 0.51195 0.0
C738 C 0.03885 0.53338 0.52614 0.0
C739 C 0.07612 0.5468 0.60812 0.0
C740 C 0.05826 0.55255 0.62191 0.0
C741 C 0.03964 0.55866 0.61002 0.0
C742 C 0.06058 0.5539 0.64739 0.0
C743 C 0.02602 0.568 0.64913 0.0
C744 C 0.04456 0.56151 0.66092 0.0
C745 C 1.02358 0.56626 0.62352 0.0
C746 C 0.10319 0.52353 0.5328 0.0
C747 C 0.12802 0.58419 0.54996 0.0
C748 C 0.08994 0.57156 0.46864 0.0
C749 C 0.10983 0.57823 0.45642 0.0
C750 C 0.11079 0.59653 0.44152 0.0
C751 C 0.12779 0.56669 0.45933 0.0
C752 C 0.14614 0.58949 0.42993 0.0
C753 C 0.1458 0.5722 0.44606 0.0
C754 C 0.12886 0.60225 0.42851 0.0
C755 C 0.06386 0.59221 0.54377 0.0
O756 O 0.04814 0.54189 0.54903 0.0
O757 O 0.05019 0.53577 0.50734 0.0
O758 O 0.07023 0.52849 0.58938 0.0
O759 O 0.08973 0.56632 0.60322 0.0
O760 O 0.10994 0.52925 0.55615 0.0
O761 O 0.08565 0.53079 0.52792 0.0
O762 O 0.11868 0.57732 0.52691 0.0
O763 O 0.11709 0.57929 0.56863 0.0
O764 O 0.08694 0.58895 0.48574 0.0
O765 O 0.08551 0.54922 0.47445 0.0
O766 O 0.05639 0.58548 0.52063 0.0
O767 O 0.08151 0.58505 0.54855 0.0
H768 H 0.03774 0.55812 0.59039 0.0
H769 H 0.07492 0.54939 0.65684 0.0
H770 H 0.04664 0.56224 0.68062 0.0
H771 H 1.00955 0.57129 0.61402 0.0
H772 H 0.09728 0.60598 0.43947 0.0
H773 H 0.12759 0.55287 0.4712 0.0
H774 H 0.15879 0.56196 0.44743 0.0
H775 H 0.12888 0.61596 0.41653 0.0
Gd776 Gd 0.80376 0.81242 0.27494 0.0
Gd777 Gd 0.85013 0.79754 0.27873 0.0
C778 C 0.83282 0.81879 0.32881 0.0
C779 C 0.76169 0.81146 0.27628 0.0
C780 C 0.74402 0.8058 0.29244 0.0
C781 C 0.74738 0.81635 0.31749 0.0
C782 C 0.72295 0.79099 0.28237 0.0
C783 C 0.70872 0.79785 0.32194 0.0
C784 C 0.70553 0.78702 0.29691 0.0
C785 C 0.72998 0.8125 0.33199 0.0
C786 C 0.83741 0.85338 0.26982 0.0
C787 C 0.82185 0.79171 0.22485 0.0
C788 C 0.89219 0.79888 0.27699 0.0
C789 C 0.90975 0.80523 0.2609 0.0
C790 C 0.90549 0.79755 0.23531 0.0
C791 C 0.93153 0.81743 0.27134 0.0
C792 C 0.94468 0.81346 0.23096 0.0
C793 C 0.94878 0.82154 0.25659 0.0
C794 C 0.92271 0.8015 0.22059 0.0
C795 C 0.81783 0.75559 0.28381 0.0
O796 O 0.81337 0.81802 0.31619 0.0
O797 O 0.84974 0.81279 0.31832 0.0
O798 O 0.77769 0.83128 0.28415 0.0
O799 O 0.76888 0.7928 0.26514 0.0
O800 O 0.8163 0.85303 0.26859 0.0
O801 O 0.83873 0.83142 0.27291 0.0
O802 O 0.84118 0.79374 0.2381 0.0
O803 O 0.8043 0.79685 0.23481 0.0
O804 O 0.8762 0.77922 0.26843 0.0
O805 O 0.885 0.81715 0.28895 0.0
O806 O 0.83921 0.75796 0.28531 0.0
O807 O 0.81447 0.77711 0.28066 0.0
H808 H 0.76337 0.82796 0.32586 0.0
H809 H 0.71987 0.7827 0.2631 0.0
H810 H 0.68958 0.77534 0.28852 0.0
H811 H 0.73313 0.82154 0.35102 0.0
H812 H 0.88892 0.78799 0.22668 0.0
H813 H 0.93529 0.82346 0.29103 0.0
H814 H 0.96532 0.83114 0.2653 0.0
H815 H 0.91879 0.79457 0.20107 0.0
Gd816 Gd 0.82421 0.29469 0.75987 0.0
Gd817 Gd 0.81018 0.31973 0.8118 0.0
C818 C 0.84705 0.35242 0.78474 0.0
C819 C 0.82277 0.28346 0.71332 0.0
C820 C 0.8241 0.3003 0.69521 0.0
C821 C 0.84227 0.32084 0.69774 0.0
C822 C 0.80574 0.29816 0.67759 0.0
C823 C 0.82314 0.33756 0.66644 0.0
C824 C 0.80522 0.31675 0.66333 0.0
C825 C 0.8418 0.33924 0.68342 0.0
C826 C 0.85126 0.28877 0.79922 0.0
C827 C 0.79011 0.26083 0.78948 0.0
C828 C 0.80611 0.33022 0.85737 0.0
C829 C 0.7966 0.31218 0.87271 0.0
C830 C 0.77417 0.29905 0.86723 0.0
C831 C 0.81084 0.30441 0.88953 0.0
C832 C 0.78155 0.26837 0.89165 0.0
C833 C 0.80339 0.28265 0.89888 0.0
C834 C 0.76672 0.27733 0.87664 0.0
C835 C 0.78397 0.3256 0.77119 0.0
O836 O 0.8427 0.33503 0.76466 0.0
O837 O 0.83752 0.35011 0.805 0.0
O838 O 0.84099 0.2859 0.72843 0.0
O839 O 0.8047 0.28117 0.72427 0.0
O840 O 0.85331 0.28078 0.77647 0.0
O841 O 0.83436 0.29832 0.79907 0.0
O842 O 0.79301 0.2794 0.80825 0.0
O843 O 0.7995 0.26265 0.76905 0.0
O844 O 0.79214 0.3342 0.84003 0.0
O845 O 0.82507 0.32754 0.8498 0.0
O846 O 0.78082 0.33288 0.79364 0.0
O847 O 0.80095 0.31651 0.77263 0.0
H848 H 0.85655 0.32329 0.7114 0.0
H849 H 0.79146 0.28264 0.67556 0.0
H850 H 0.7908 0.31498 0.65005 0.0
H851 H 0.85579 0.35517 0.68612 0.0
H852 H 0.76267 0.30451 0.85435 0.0
H853 H 0.82815 0.31419 0.89413 0.0
H854 H 0.815 0.27646 0.91102 0.0
H855 H 0.74978 0.26674 0.87092 0.0
Gd856 Gd 0.83893 0.82802 0.78837 0.0
Gd857 Gd 0.80548 0.77886 0.76123 0.0
C858 C 0.78793 0.82717 0.78254 0.0
C859 C 0.86721 0.87028 0.79672 0.0
C860 C 0.86459 0.8941 0.78925 0.0
C861 C 0.85188 0.90876 0.80194 0.0
C862 C 0.87134 0.89999 0.76687 0.0
C863 C 0.84854 0.93051 0.76746 0.0
C864 C 0.8632 0.91791 0.75596 0.0
C865 C 0.84392 0.92684 0.79109 0.0
C866 C 0.8215 0.79632 0.81821 0.0
C867 C 0.85814 0.77983 0.7679 0.0
C868 C 0.77677 0.7368 0.75376 0.0
C869 C 0.77535 0.71277 0.76232 0.0
C870 C 0.77689 0.6918 0.7457 0.0
C871 C 0.77471 0.71101 0.78727 0.0
C872 C 0.78188 0.66961 0.77947 0.0
C873 C 0.77807 0.68957 0.79579 0.0
C874 C 0.78016 0.67034 0.75422 0.0
C875 C 0.81472 0.81151 0.72907 0.0
O876 O 0.80769 0.84113 0.78135 0.0
O877 O 0.78413 0.80261 0.77878 0.0
O878 O 0.85483 0.86231 0.81317 0.0
O879 O 0.86771 0.85241 0.77868 0.0
O880 O 0.82719 0.82042 0.82456 0.0
O881 O 0.82699 0.79015 0.79713 0.0
O882 O 0.8377 0.76625 0.76037 0.0
O883 O 0.86249 0.80334 0.77909 0.0
O884 O 0.7921 0.74237 0.73939 0.0
O885 O 0.77555 0.75589 0.77011 0.0
O886 O 0.80178 0.78948 0.72305 0.0
O887 O 0.82141 0.81438 0.7516 0.0
H888 H 0.8466 0.905 0.81936 0.0
H889 H 0.8814 0.88932 0.7568 0.0
H890 H 0.86717 0.92077 0.73784 0.0
H891 H 0.83261 0.93641 0.80026 0.0
H892 H 0.77704 0.69258 0.72631 0.0
H893 H 0.77292 0.72663 0.80045 0.0
H894 H 0.77898 0.68911 0.8153 0.0
H895 H 0.78313 0.65515 0.7413 0.0
Gd896 Gd 0.56265 0.54128 0.50968 0.0
Gd897 Gd 0.59334 0.568 0.53779 0.0
C898 C 0.5702 0.59838 0.50726 0.0
C899 C 0.5229 0.52173 0.48739 0.0
C900 C 0.50166 0.52376 0.49635 0.0
C901 C 0.48446 0.52772 0.4803 0.0
C902 C 0.50019 0.52693 0.52172 0.0
C903 C 0.46588 0.54087 0.51505 0.0
C904 C 0.48235 0.53529 0.53098 0.0
C905 C 0.46669 0.53623 0.48957 0.0
C906 C 0.59806 0.54302 0.48029 0.0
C907 C 0.59054 0.51147 0.53665 0.0
C908 C 0.63029 0.58905 0.56584 0.0
C909 C 0.653 0.58829 0.56132 0.0
C910 C 0.67037 0.59425 0.5807 0.0
C911 C 0.65663 0.57815 0.5378 0.0
C912 C 0.69433 0.57776 0.55341 0.0
C913 C 0.67716 0.57302 0.53383 0.0
C914 C 0.69105 0.58912 0.57674 0.0
C915 C 0.5559 0.56681 0.56388 0.0
O916 O 0.55426 0.57944 0.50938 0.0
O917 O 0.59042 0.59672 0.51419 0.0
O918 O 0.53477 0.54282 0.48385 0.0
O919 O 0.53481 0.50914 0.49877 0.0
O920 O 0.5823 0.52385 0.48108 0.0
O921 O 0.59518 0.56095 0.49633 0.0
O922 O 0.60487 0.53169 0.53453 0.0
O923 O 0.56959 0.51147 0.53113 0.0
O924 O 0.61812 0.56751 0.56775 0.0
O925 O 0.61994 0.60073 0.55159 0.0
O926 O 0.56959 0.58643 0.56005 0.0
O927 O 0.56135 0.54829 0.55122 0.0
H928 H 0.48549 0.52575 0.46074 0.0
H929 H 0.51352 0.5245 0.53452 0.0
H930 H 0.48226 0.53896 0.55069 0.0
H931 H 0.45406 0.54021 0.47691 0.0
H932 H 0.66765 0.60177 0.59903 0.0
H933 H 0.6432 0.57307 0.52278 0.0
H934 H 0.67935 0.56451 0.51563 0.0
H935 H 0.70403 0.59277 0.59214 0.0
Gd936 Gd 0.08836 0.55181 0.02542 0.0
Gd937 Gd 0.03903 0.54692 0.03939 0.0
C938 C 0.05418 0.49606 0.02171 0.0
C939 C 0.1294 0.54753 0.02815 0.0
C940 C 0.14774 0.53448 0.02412 0.0
C941 C 0.16835 0.54825 0.01987 0.0
C942 C 0.14645 0.51019 0.0292 0.0
C943 C 0.1866 0.51507 0.02887 0.0
C944 C 0.16565 0.50056 0.03144 0.0
C945 C 0.18751 0.53869 0.02218 0.0
C946 C 0.05658 0.55131 0.98899 0.0
C947 C 0.07229 0.60212 0.04296 0.0
C948 C 0.99791 0.55025 0.04001 0.0
C949 C 0.98364 0.56818 0.03699 0.0
C950 C 0.96337 0.56013 0.0215 0.0
C951 C 0.98965 0.59297 0.0494 0.0
C952 C 0.95511 0.60122 0.031 0.0
C953 C 0.97556 0.60931 0.04639 0.0
C954 C 0.94926 0.57641 0.01855 0.0
C955 C 0.07047 0.5458 0.07539 0.0
O956 O 0.07418 0.50965 0.01962 0.0
O957 O 0.03757 0.50612 0.0284 0.0
O958 O 0.12088 0.55831 1.01124 0.0
O959 O 0.11516 0.53896 0.04255 0.0
O960 O 0.07721 0.56312 0.98924 0.0
O961 O 0.05486 0.53932 1.00636 0.0
O962 O 0.05162 0.58822 0.03878 0.0
O963 O 0.08989 0.59207 0.04151 0.0
O964 O 1.01234 0.55479 0.05987 0.0
O965 O 1.00579 0.5415 0.0203 0.0
O966 O 0.04988 0.53364 0.07421 0.0
O967 O 0.07262 0.5589 0.05877 0.0
H968 H 0.16991 0.56707 0.01618 0.0
H969 H 0.13084 0.49914 0.03279 0.0
H970 H 0.16427 0.48235 0.03664 0.0
H971 H 0.20325 0.55023 0.0196 0.0
H972 H 0.9584 0.54114 1.01166 0.0
H973 H 1.00513 0.59968 0.06153 0.0
H974 H 0.98055 0.6282 0.05645 0.0
H975 H 0.93385 0.5696 1.00626 0.0
H976 H 1.01236 0.2074 0.9754 0.0
H977 H 0.06043 0.22132 0.92397 0.0
H978 H 0.07639 0.18661 0.93497 0.0
H979 H 0.04821 0.19253 0.02161 0.0
H980 H 0.02754 0.16811 0.0298 0.0
H981 H 1.01916 0.1933 0.01731 0.0
H982 H 0.99262 0.16178 0.9825 0.0
H983 H 1.00073 0.13681 0.99564 0.0
H984 H 1.00338 0.13875 0.96384 0.0
H985 H 0.08969 0.15317 0.95498 0.0
H986 H 0.09578 0.11957 0.97757 0.0
H987 H 0.03708 0.12434 1.01338 0.0
C988 C 0.02601 0.20289 0.96611 0.0
C989 C 0.03506 0.21716 0.94868 0.0
C990 C 0.05299 0.2106 0.93711 0.0
C991 C 0.06229 0.19099 0.94341 0.0
C992 C 0.05329 0.17771 0.96104 0.0
C993 C 0.03522 0.18303 0.97183 0.0
C994 C 0.02865 0.16584 0.9902 0.0
C995 C 0.03104 0.18085 0.01627 0.0
C996 C 1.00492 0.14985 0.98254 0.0
C997 C 0.04585 0.15 0.98811 0.0
C998 C 0.06017 0.15752 0.97152 0.0
C999 C 0.07833 0.14689 0.96766 0.0
C1000 C 0.08174 0.1279 0.98071 0.0
C1001 C 0.06685 0.11918 0.9971 0.0
C1002 C 0.0486 0.1304 1.00075 0.0
H1003 H 0.17094 0.81897 0.18327 0.0
H1004 H 0.20776 0.87427 0.14585 0.0
H1005 H 0.24191 0.8768 0.17377 0.0
H1006 H 0.20044 0.84382 0.24557 0.0
H1007 H 0.20027 0.81332 0.25292 0.0
H1008 H 0.17828 0.8176 0.23152 0.0
H1009 H 0.18653 0.78349 0.19893 0.0
H1010 H 0.20864 0.77925 0.22015 0.0
H1011 H 0.21427 0.78654 0.19043 0.0
H1012 H 0.273 0.87206 0.2051 0.0
H1013 H 0.29776 0.86005 0.23668 0.0
H1014 H 0.24148 0.80635 0.25245 0.0
C1015 C 0.18605 0.83207 0.18139 0.0
C1016 C 0.18647 0.84678 0.16254 0.0
C1017 C 0.20688 0.86302 0.16024 0.0
C1018 C 0.22643 0.86456 0.17603 0.0
C1019 C 0.22561 0.84948 0.19406 0.0
C1020 C 0.20594 0.83351 0.19681 0.0
C1021 C 0.20993 0.81819 0.21665 0.0
C1022 C 0.19643 0.82356 0.23793 0.0
C1023 C 0.20452 0.79022 0.20589 0.0
C1024 C 0.23481 0.82805 0.22462 0.0
C1025 C 0.24356 0.84621 0.21147 0.0
C1026 C 0.26623 0.85791 0.21554 0.0
C1027 C 0.28023 0.85096 0.23351 0.0
C1028 C 0.27168 0.83228 0.24711 0.0
C1029 C 0.24861 0.82073 0.24243 0.0
H1030 H 0.56001 0.87184 0.43471 0.0
H1031 H 0.51271 0.83473 0.47794 0.0
H1032 H 0.51321 0.87553 0.50317 0.0
H1033 H 0.59291 0.91597 0.48601 0.0
H1034 H 0.59884 0.94103 0.46869 0.0
H1035 H 0.59404 0.90915 0.45343 0.0
H1036 H 0.56255 0.91622 0.42312 0.0
H1037 H 0.56731 0.94814 0.43822 0.0
H1038 H 0.53993 0.92801 0.43498 0.0
H1039 H 0.5177 0.9207 0.52238 0.0
H1040 H 0.52773 0.96634 0.53625 0.0
H1041 H 0.57487 0.97394 0.48314 0.0
C1042 C 0.54962 0.87234 0.44937 0.0
C1043 C 0.53606 0.85015 0.45421 0.0
C1044 C 0.52309 0.8515 0.47387 0.0
C1045 C 0.52329 0.87459 0.48826 0.0
C1046 C 0.53691 0.89612 0.48308 0.0
C1047 C 0.55006 0.89516 0.46429 0.0
C1048 C 0.56388 0.92091 0.46318 0.0
C1049 C 0.5889 0.92181 0.46812 0.0
C1050 C 0.55806 0.92878 0.43841 0.0
C1051 C 0.55624 0.93661 0.48406 0.0
C1052 C 0.54051 0.92193 0.49512 0.0
C1053 C 0.53017 0.93228 0.51403 0.0
C1054 C 0.53594 0.95823 0.52175 0.0
C1055 C 0.55222 0.97362 0.51095 0.0
C1056 C 0.56266 0.96258 0.49201 0.0
H1057 H 0.56649 0.3237 0.70005 0.0
H1058 H 0.53961 0.33463 0.62846 0.0
H1059 H 0.50258 0.33098 0.64202 0.0
H1060 H 0.51778 0.27798 0.70936 0.0
H1061 H 0.51963 0.2894 0.74178 0.0
H1062 H 0.54445 0.29297 0.72677 0.0
H1063 H 0.55347 0.34056 0.74241 0.0
H1064 H 0.52864 0.33714 0.75739 0.0
H1065 H 0.53303 0.35817 0.7356 0.0
H1066 H 0.46843 0.32705 0.66291 0.0
H1067 H 0.43883 0.32161 0.68962 0.0
H1068 H 0.48614 0.31162 0.74799 0.0
C1069 C 0.55279 0.32529 0.68726 0.0
C1070 C 0.55616 0.32949 0.6631 0.0
C1071 C 0.53767 0.3314 0.647 0.0
C1072 C 0.51646 0.32939 0.65454 0.0
C1073 C 0.51368 0.32536 0.67834 0.0
C1074 C 0.53124 0.32319 0.6945 0.0
C1075 C 0.52333 0.31861 0.71901 0.0
C1076 C 0.52649 0.29323 0.72455 0.0
C1077 C 0.53533 0.33989 0.73983 0.0
C1078 C 0.4987 0.31864 0.714 0.0
C1079 C 0.49363 0.32264 0.6904 0.0
C1080 C 0.47216 0.32368 0.68138 0.0
C1081 C 0.45535 0.32036 0.69673 0.0
C1082 C 0.45981 0.31583 0.72099 0.0
C1083 C 0.48199 0.31516 0.72968 0.0
H1084 H 1.00327 0.80475 0.59245 0.0
H1085 H 1.00851 0.85148 0.66356 0.0
H1086 H 1.01747 0.88905 0.64422 0.0
H1087 H 0.04886 0.84124 0.57192 0.0
H1088 H 0.03655 0.83611 0.54036 0.0
H1089 H 0.02834 0.81302 0.55931 0.0
H1090 H 0.98705 0.81505 0.54979 0.0
H1091 H 0.99512 0.83811 0.5307 0.0
H1092 H 0.97939 0.84467 0.55567 0.0
H1093 H 0.02849 0.92121 0.61773 0.0
H1094 H 0.04068 0.94591 0.58591 0.0
H1095 H 0.02867 0.87802 0.53224 0.0
C1096 C 1.00597 0.82287 0.60393 0.0
C1097 C 1.00516 0.82526 0.62949 0.0
C1098 C 1.00898 0.84928 0.64391 0.0
C1099 C 1.01404 0.87068 0.63309 0.0
C1100 C 1.01512 0.86765 0.60788 0.0
C1101 C 1.0111 0.84435 0.59346 0.0
C1102 C 1.01457 0.84615 0.56707 0.0
C1103 C 0.03319 0.83338 0.55922 0.0
C1104 C 0.99273 0.83536 0.54979 0.0
C1105 C 1.02155 0.87413 0.56896 0.0
C1106 C 1.02162 0.88619 0.59262 0.0
C1107 C 0.02837 0.91199 0.59912 0.0
C1108 C 0.03542 0.92581 0.581 0.0
C1109 C 0.03571 0.91378 0.55672 0.0
C1110 C 0.0284 0.88765 0.5506 0.0
H1111 H 0.56084 0.83812 0.88411 0.0
H1112 H 0.58865 0.91566 0.88117 0.0
H1113 H 0.55416 0.91791 0.85634 0.0
H1114 H 0.52896 0.82214 0.82148 0.0
H1115 H 0.50591 0.80197 0.83135 0.0
H1116 H 0.53376 0.80563 0.84634 0.0
H1117 H 0.52073 0.81887 0.88837 0.0
H1118 H 0.49292 0.81533 0.87354 0.0
H1119 H 0.50718 0.84461 0.89228 0.0
H1120 H 0.51596 0.91276 0.8351 0.0
H1121 H 0.47587 0.90107 0.81987 0.0
H1122 H 0.47254 0.8267 0.83647 0.0
C1123 C 0.5597 0.85534 0.87771 0.0
C1124 C 0.57719 0.8767 0.88423 0.0
C1125 C 0.57528 0.89915 0.87619 0.0
C1126 C 0.55586 0.90054 0.862 0.0
C1127 C 0.53866 0.87923 0.85605 0.0
C1128 C 0.54037 0.85702 0.86358 0.0
C1129 C 0.51883 0.83747 0.85629 0.0
C1130 C 0.52207 0.81551 0.83776 0.0
C1131 C 0.50936 0.82857 0.87897 0.0
C1132 C 0.50451 0.85245 0.84432 0.0
C1133 C 0.51641 0.87633 0.84397 0.0
C1134 C 0.50653 0.894 0.8349 0.0
C1135 C 0.48379 0.88716 0.82621 0.0
C1136 C 0.47117 0.86295 0.82687 0.0
C1137 C 0.4818 0.84533 0.83575 0.0
H1138 H 0.49736 0.19246 0.08987 0.0
H1139 H 0.52451 0.19256 0.16462 0.0
H1140 H 0.53087 0.15038 0.1521 0.0
H1141 H 0.47237 0.12168 0.0736 0.0
H1142 H 0.47959 0.12164 0.04286 0.0
H1143 H 0.47178 0.14844 0.05901 0.0
H1144 H 0.50877 0.17646 0.05158 0.0
H1145 H 0.51691 0.14989 0.03589 0.0
H1146 H 0.53481 0.16941 0.06201 0.0
H1147 H 0.54353 0.11468 0.12955 0.0
H1148 H 0.55744 0.08604 0.09965 0.0
H1149 H 0.51988 0.1075 0.03994 0.0
C1150 C 0.50371 0.18307 0.10377 0.0
C1151 C 0.51041 0.19555 0.12814 0.0
C1152 C 0.51899 0.18306 0.1459 0.0
C1153 C 0.52269 0.15914 0.13892 0.0
C1154 C 0.51713 0.14787 0.11432 0.0
C1155 C 0.50719 0.15916 0.09715 0.0
C1156 C 0.5053 0.14475 0.07143 0.0
C1157 C 0.4808 0.13345 0.06113 0.0
C1158 C 0.51717 0.1611 0.05425 0.0
C1159 C 0.51732 0.12473 0.07654 0.0
C1160 C 0.52372 0.12654 0.1014 0.0
C1161 C 0.53785 0.1124 0.11015 0.0
C1162 C 0.54574 0.09623 0.09306 0.0
C1163 C 0.53937 0.09427 0.0676 0.0
C1164 C 0.52457 0.10824 0.05936 0.0
H1165 H 0.20995 0.37343 0.37178 0.0
H1166 H 0.15095 0.3391 0.31985 0.0
H1167 H 0.17483 0.32986 0.28794 0.0
H1168 H 0.24445 0.4009 0.3277 0.0
H1169 H 0.26945 0.39457 0.34209 0.0
H1170 H 0.24782 0.40049 0.36024 0.0
H1171 H 0.24573 0.35832 0.37566 0.0
H1172 H 0.26758 0.35259 0.35791 0.0
H1173 H 0.2414 0.33004 0.35355 0.0
H1174 H 0.20478 0.32049 0.26334 0.0
H1175 H 0.23859 0.30981 0.24849 0.0
H1176 H 0.27821 0.35204 0.31557 0.0
C1177 C 0.20202 0.36417 0.35363 0.0
C1178 C 0.17858 0.35698 0.34825 0.0
C1179 C 0.16887 0.34477 0.32434 0.0
C1180 C 0.18229 0.33962 0.30607 0.0
C1181 C 0.20536 0.34706 0.31197 0.0
C1182 C 0.21515 0.35904 0.33518 0.0
C1183 C 0.24029 0.3635 0.33731 0.0
C1184 C 0.25113 0.39154 0.34212 0.0
C1185 C 0.24926 0.35032 0.35728 0.0
C1186 C 0.24312 0.35143 0.31188 0.0
C1187 C 0.22276 0.3423 0.29745 0.0
C1188 C 0.22085 0.32806 0.2742 0.0
C1189 C 0.2401 0.32217 0.26587 0.0
C1190 C 0.26093 0.33072 0.28067 0.0
C1191 C 0.26258 0.34621 0.30356 0.0
H1192 H 1.02109 0.08937 0.20638 0.0
H1193 H 0.95253 0.05549 0.17713 0.0
H1194 H 0.96397 0.04871 0.13527 0.0
H1195 H 0.03423 0.12186 0.15324 0.0
H1196 H 0.06246 0.11792 0.15523 0.0
H1197 H 0.04865 0.12016 0.18244 0.0
H1198 H 0.05682 0.07825 0.1904 0.0
H1199 H 0.07041 0.07573 0.16306 0.0
H1200 H 0.04764 0.05102 0.16685 0.0
H1201 H 0.98538 0.04159 0.09447 0.0
H1202 H 1.01091 0.0417 0.06242 0.0
H1203 H 0.06525 0.08459 0.11639 0.0
C1204 C 1.00821 0.08106 0.19117 0.0
C1205 C 0.98539 0.07355 0.19606 0.0
C1206 C 0.96981 0.06223 0.17485 0.0
C1207 C 0.97639 0.05797 0.15065 0.0
C1208 C 0.99892 0.06533 0.14673 0.0
C1209 C 1.01448 0.07733 0.16661 0.0
C1210 C 0.03757 0.08431 0.15762 0.0
C1211 C 0.04625 0.11276 0.16242 0.0
C1212 C 0.05409 0.07158 0.17025 0.0
C1213 C 0.03293 0.07413 0.12973 0.0
C1214 C 1.01054 0.06279 0.12382 0.0
C1215 C 1.00275 0.05088 0.09937 0.0
C1216 C 1.01763 0.05087 0.08093 0.0
C1217 C 0.04061 0.06313 0.08589 0.0
C1218 C 0.04799 0.075 0.11114 0.0
H1219 H 0.29257 0.69401 0.4924 0.0
H1220 H 0.31423 0.6308 0.45569 0.0
H1221 H 0.29678 0.63739 0.41576 0.0
H1222 H 0.23846 0.68454 0.44984 0.0
H1223 H 0.24175 0.71786 0.45324 0.0
H1224 H 0.25129 0.70414 0.47851 0.0
H1225 H 0.29066 0.73272 0.4811 0.0
H1226 H 0.28133 0.74635 0.45601 0.0
H1227 H 0.30493 0.73222 0.45417 0.0
H1228 H 0.28487 0.65755 0.38013 0.0
H1229 H 0.27979 0.68812 0.35328 0.0
H1230 H 0.26413 0.7361 0.41492 0.0
C1231 C 0.29295 0.68087 0.47625 0.0
C1232 C 0.30467 0.6619 0.47711 0.0
C1233 C 0.30511 0.64536 0.45534 0.0
C1234 C 0.29515 0.64892 0.43268 0.0
C1235 C 0.28423 0.6685 0.43247 0.0
C1236 C 0.28268 0.6838 0.45393 0.0
C1237 C 0.27263 0.70533 0.44914 0.0
C1238 C 0.24967 0.7028 0.45821 0.0
C1239 C 0.28833 0.7306 0.46076 0.0
C1240 C 0.27055 0.70121 0.4215 0.0
C1241 C 0.27674 0.67956 0.41204 0.0
C1242 C 0.27936 0.6741 0.38727 0.0
C1243 C 0.27656 0.69165 0.37217 0.0
C1244 C 0.27143 0.71448 0.382 0.0
C1245 C 0.26732 0.71854 0.40664 0.0
H1246 H 0.67437 0.06093 0.67576 0.0
H1247 H 0.64971 0.98555 0.68777 0.0
H1248 H 0.62449 0.97644 0.64885 0.0
H1249 H 0.62499 0.07151 0.65856 0.0
H1250 H 0.63272 0.09 0.6353 0.0
H1251 H 0.6533 0.08875 0.65974 0.0
H1252 H 0.67776 0.07443 0.62814 0.0
H1253 H 0.65728 0.07444 0.60286 0.0
H1254 H 0.66714 0.04662 0.60574 0.0
H1255 H 0.59624 0.97858 0.61547 0.0
H1256 H 0.56861 0.99099 0.58764 0.0
H1257 H 0.61122 0.06499 0.59661 0.0
C1258 C 0.66456 0.04216 0.66931 0.0
C1259 C 0.66426 0.02366 0.68411 0.0
C1260 C 0.65042 0.99965 0.67614 0.0
C1261 C 0.63606 0.99437 0.65412 0.0
C1262 C 0.63578 1.01337 0.64042 0.0
C1263 C 0.64992 0.03673 0.64747 0.0
C1264 C 0.64392 0.05492 0.63165 0.0
C1265 C 0.6384 0.07761 0.64725 0.0
C1266 C 0.66262 0.06308 0.61616 0.0
C1267 C 0.6234 0.03861 0.61578 0.0
C1268 C 0.61921 1.0146 0.62082 0.0
C1269 C 0.59968 0.99708 0.61077 0.0
C1270 C 0.58399 1.00432 0.59524 0.0
C1271 C 0.58802 0.02879 0.58997 0.0
C1272 C 0.60808 0.04597 0.6 0.0
H1273 H 0.3584 0.3633 0.97362 0.0
H1274 H 0.30895 0.40792 0.96988 0.0
H1275 H 0.29924 0.3918 0.92562 0.0
H1276 H 0.37728 0.37375 0.91515 0.0
H1277 H 0.38188 0.34289 0.90662 0.0
H1278 H 0.38435 0.35647 0.93858 0.0
H1279 H 0.35533 0.31839 0.94615 0.0
H1280 H 0.35278 0.3047 0.91421 0.0
H1281 H 0.32841 0.3096 0.9279 0.0
H1282 H 0.29408 0.37112 0.88271 0.0
H1283 H 0.29547 0.34925 0.84148 0.0
H1284 H 0.35016 0.31928 0.86973 0.0
C1285 C 0.34541 0.3694 0.9634 0.0
C1286 C 0.33424 0.38672 0.97521 0.0
C1287 C 0.31767 0.39469 0.96123 0.0
C1288 C 0.31199 0.38558 0.93607 0.0
C1289 C 0.32329 0.36874 0.92487 0.0
C1290 C 0.33984 0.36086 0.93785 0.0
C1291 C 0.35001 0.34361 0.92054 0.0
C1292 C 0.37486 0.35485 0.92021 0.0
C1293 C 0.34641 0.31752 0.92763 0.0
C1294 C 0.33647 0.34305 0.89599 0.0
C1295 C 0.32101 0.35751 0.89925 0.0
C1296 C 0.30615 0.3598 0.87987 0.0
C1297 C 0.30705 0.34712 0.85643 0.0
C1298 C 0.32288 0.33239 0.85214 0.0
C1299 C 0.33792 0.33044 0.8723 0.0
H1300 H 1.00132 0.05575 0.32622 0.0
H1301 H 0.95711 0.1019 0.35237 0.0
H1302 H 0.97278 0.10291 0.39507 0.0
H1303 H 0.99657 1.0187 0.37645 0.0
H1304 H 0.02511 1.01582 0.37894 0.0
H1305 H 1.01144 1.01937 0.35 0.0
H1306 H 0.04267 0.05771 0.34841 0.0
H1307 H 0.05641 0.05429 0.37735 0.0
H1308 H 0.04924 0.08341 0.37375 0.0
H1309 H 0.99468 0.10081 0.43652 0.0
H1310 H 1.01739 0.09245 0.47183 0.0
H1311 H 0.04626 0.04392 0.42226 0.0
C1312 C 0.99497 0.06621 0.34088 0.0
C1313 C 0.97772 0.07909 0.33502 0.0
C1314 C 0.97009 0.09195 0.35549 0.0
C1315 C 0.97905 0.09267 0.38018 0.0
C1316 C 0.99578 0.07997 0.38527 0.0
C1317 C 1.0035 0.06659 0.36619 0.0
C1318 C 1.02094 0.05364 0.37727 0.0
C1319 C 1.01305 0.02519 0.37024 0.0
C1320 C 0.04367 0.0628 0.36867 0.0
C1321 C 1.02195 0.06196 0.40533 0.0
C1322 C 1.00742 0.07748 0.40931 0.0
C1323 C 1.00586 0.08844 0.43334 0.0
C1324 C 1.01906 0.08354 0.4536 0.0
C1325 C 0.0339 0.06723 0.45078 0.0
C1326 C 0.0351 0.05625 0.42579 0.0
H1327 H 0.33704 0.70271 0.61639 0.0
H1328 H 0.36902 0.76149 0.5796 0.0
H1329 H 0.37307 0.792 0.61772 0.0
H1330 H 0.3041 0.73524 0.64467 0.0
H1331 H 0.30505 0.72352 0.67325 0.0
H1332 H 0.30963 0.70485 0.64572 0.0
H1333 H 0.34788 0.70145 0.66633 0.0
H1334 H 0.34312 0.71946 0.6943 0.0
H1335 H 0.36805 0.72941 0.68057 0.0
H1336 H 0.3673 0.81705 0.65669 0.0
H1337 H 0.35601 0.83431 0.69604 0.0
H1338 H 0.32644 0.75935 0.70668 0.0
C1339 C 0.34602 0.72173 0.61683 0.0
C1340 C 0.35309 0.72977 0.59531 0.0
C1341 C 0.36382 0.75501 0.5961 0.0
C1342 C 0.3661 0.77245 0.61761 0.0
C1343 C 0.35756 0.76429 0.6381 0.0
C1344 C 0.34813 0.73942 0.63809 0.0
C1345 C 0.3378 0.73601 0.66143 0.0
C1346 C 0.31267 0.72422 0.65591 0.0
C1347 C 0.34995 0.72068 0.67655 0.0
C1348 C 0.34212 0.76287 0.674 0.0
C1349 C 0.35374 0.77887 0.66042 0.0
C1350 C 0.35858 0.80468 0.66774 0.0
C1351 C 0.35191 0.81432 0.68993 0.0
C1352 C 0.34043 0.79814 0.70433 0.0
C1353 C 0.33527 0.77215 0.69606 0.0
H1354 H 0.71452 0.06376 0.82861 0.0
H1355 H 0.67343 0.99198 0.79358 0.0
H1356 H 0.65436 0.98889 0.83045 0.0
H1357 H 0.71648 0.05092 0.89442 0.0
H1358 H 0.71432 0.08218 0.90612 0.0
H1359 H 0.7284 0.07636 0.87952 0.0
H1360 H 0.70241 0.09755 0.85497 0.0
H1361 H 0.68809 0.10313 0.88129 0.0
H1362 H 0.67267 0.08614 0.85255 0.0
H1363 H 0.63542 0.99649 0.86617 0.0
H1364 H 0.61789 1.01393 0.90049 0.0
H1365 H 0.67041 0.08106 0.91422 0.0
C1366 C 0.70221 0.04697 0.82934 0.0
C1367 C 0.69565 0.02779 0.80873 0.0
C1368 C 0.67878 1.00658 0.80951 0.0
C1369 C 0.66794 1.00466 0.83034 0.0
C1370 C 0.67412 0.02423 0.85013 0.0
C1371 C 0.69092 0.04497 0.84999 0.0
C1372 C 0.69206 0.06473 0.87236 0.0
C1373 C 0.71413 0.06878 0.8891 0.0
C1374 C 0.68859 0.08933 0.86483 0.0
C1375 C 0.67259 0.05231 0.8843 0.0
C1376 C 0.66284 0.02876 0.87133 0.0
C1377 C 0.64338 1.01445 0.87711 0.0
C1378 C 0.63363 0.02436 0.89678 0.0
C1379 C 0.64342 0.04817 0.91059 0.0
C1380 C 0.6631 0.06243 0.9043 0.0
H1381 H 0.32673 0.33178 0.09102 0.0
H1382 H 0.34544 0.40999 0.1239 0.0
H1383 H 0.33882 0.39854 0.16462 0.0
H1384 H 0.28198 0.31513 0.12757 0.0
H1385 H 0.2872 0.28473 0.12926 0.0
H1386 H 0.2938 0.29931 0.10313 0.0
H1387 H 0.33446 0.29451 0.11075 0.0
H1388 H 0.32801 0.28003 0.13698 0.0
H1389 H 0.3505 0.30721 0.14034 0.0
H1390 H 0.33205 0.37744 0.20282 0.0
H1391 H 0.3219 0.34957 0.23308 0.0
H1392 H 0.30496 0.28582 0.17425 0.0
C1393 C 0.32945 0.34656 0.10676 0.0
C1394 C 0.33681 0.37184 0.10419 0.0
C1395 C 0.33981 0.39053 0.1253 0.0
C1396 C 0.33617 0.38416 0.14856 0.0
C1397 C 0.32914 0.35901 0.15045 0.0
C1398 C 0.32545 0.34057 0.12995 0.0
C1399 C 0.31718 0.31499 0.13655 0.0
C1400 C 0.29364 0.30283 0.12334 0.0
C1401 C 0.33351 0.2982 0.13081 0.0
C1402 C 0.31697 0.32175 0.16401 0.0
C1403 C 0.32418 0.34719 0.17185 0.0
C1404 C 0.32619 0.35755 0.19672 0.0
C1405 C 0.32051 0.34157 0.21384 0.0
C1406 C 0.31257 0.31554 0.20604 0.0
C1407 C 0.31078 0.30566 0.18076 0.0
H1408 H 0.26074 0.96861 1.01321 0.0
H1409 H 0.31075 0.02344 0.98848 0.0
H1410 H 0.28875 0.05522 0.998 0.0
H1411 H 0.21247 0.9898 0.99106 0.0
H1412 H 0.19846 0.98385 0.01739 0.0
H1413 H 0.21761 0.96538 1.00727 0.0
H1414 H 0.24008 0.97704 0.05074 0.0
H1415 H 0.22107 0.99565 0.06093 0.0
H1416 H 0.25047 1.00943 0.06411 0.0
H1417 H 0.26082 0.08091 1.01026 0.0
H1418 H 0.23023 0.09865 0.02611 0.0
H1419 H 0.2002 0.02713 0.0445 0.0
C1420 C 0.26696 0.98723 1.00954 0.0
C1421 C 0.28732 0.99358 0.99994 0.0
C1422 C 0.29511 1.01823 0.99577 0.0
C1423 C 0.28274 0.03636 1.00109 0.0
C1424 C 0.26277 0.02951 1.01075 0.0
C1425 C 0.25502 1.00555 0.01503 0.0
C1426 C 0.23359 1.00311 0.02646 0.0
C1427 C 0.2144 0.98443 1.00953 0.0
C1428 C 0.23649 0.99589 0.05208 0.0
C1429 C 0.23051 0.02947 0.02804 0.0
C1430 C 0.24733 0.04442 0.01867 0.0
C1431 C 0.24764 0.06941 0.01778 0.0
C1432 C 0.23028 0.07932 0.02677 0.0
C1433 C 0.21319 0.0643 0.0368 0.0
C1434 C 0.21336 0.03911 0.03736 0.0
H1435 H 0.70208 0.68224 0.99569 0.0
H1436 H 0.74985 0.63511 0.99531 0.0
H1437 H 0.71992 0.59922 0.99805 0.0
H1438 H 0.66928 0.65467 0.03865 0.0
H1439 H 0.64264 0.6556 0.02335 0.0
H1440 H 0.66712 0.67851 0.02038 0.0
H1441 H 0.66054 0.66672 0.97291 0.0
H1442 H 0.63523 0.64486 0.97568 0.0
H1443 H 0.65612 0.63451 0.9589 0.0
H1444 H 0.68556 0.56828 1.0001 0.0
H1445 H 0.64805 0.54329 1.00126 0.0
H1446 H 0.62111 0.60931 1.00201 0.0
C1447 C 0.70623 0.66435 0.99607 0.0
C1448 C 0.72852 0.66167 0.99528 0.0
C1449 C 0.73309 0.63785 0.9959 0.0
C1450 C 0.71615 0.61726 0.99749 0.0
C1451 C 0.69456 0.62059 0.99849 0.0
C1452 C 0.68942 0.64342 0.99773 0.0
C1453 C 0.66461 0.6415 0.99891 0.0
C1454 C 0.6607 0.65861 0.02168 0.0
C1455 C 0.65345 0.64725 0.9752 0.0
C1456 C 0.65676 0.61413 1.00089 0.0
C1457 C 0.67444 0.60253 1.00033 0.0
C1458 C 0.67163 0.57717 1.00071 0.0
C1459 C 0.6502 0.56313 1.00135 0.0
C1460 C 0.63168 0.57433 1.00194 0.0
C1461 C 0.63502 0.60032 1.00201 0.0
H1462 H 0.75846 0.48296 0.27585 0.0
H1463 H 0.69139 0.43976 0.27488 0.0
H1464 H 0.70553 0.40121 0.27117 0.0
H1465 H 0.77733 0.43679 0.23241 0.0
H1466 H 0.805 0.44232 0.24849 0.0
H1467 H 0.78996 0.46684 0.25072 0.0
H1468 H 0.79523 0.47141 0.2979 0.0
H1469 H 0.81029 0.44691 0.2958 0.0
H1470 H 0.78623 0.44449 0.31207 0.0
H1471 H 0.7276 0.36481 0.26702 0.0
H1472 H 0.75378 0.33704 0.26442 0.0
H1473 H 0.80853 0.40111 0.26907 0.0
C1474 C 0.74657 0.46544 0.27477 0.0
C1475 C 0.72313 0.46552 0.2756 0.0
C1476 C 0.70906 0.44138 0.27429 0.0
C1477 C 0.71714 0.41891 0.27214 0.0
C1478 C 0.73995 0.41955 0.27139 0.0
C1479 C 0.75457 0.44236 0.2728 0.0
C1480 C 0.77845 0.43759 0.27205 0.0
C1481 C 0.78828 0.44643 0.24958 0.0
C1482 C 0.79345 0.45091 0.29587 0.0
C1483 C 0.77509 0.40878 0.26985 0.0
C1484 C 0.75258 0.39886 0.26945 0.0
C1485 C 0.74516 0.37285 0.26741 0.0
C1486 C 0.76051 0.35683 0.26588 0.0
C1487 C 0.78398 0.36572 0.26638 0.0
C1488 C 0.79103 0.39269 0.26844 0.0
H1489 H 0.91838 0.44744 0.47518 0.0
H1490 H 0.89228 0.50533 0.51643 0.0
H1491 H 0.93006 0.53105 0.52798 0.0
H1492 H 0.96642 0.45325 0.51613 0.0
H1493 H 0.98471 0.44904 0.49315 0.0
H1494 H 0.95535 0.43532 0.48616 0.0
H1495 H 0.95326 0.45798 0.44875 0.0
H1496 H 0.98269 0.47162 0.45549 0.0
H1497 H 0.96323 0.49135 0.45305 0.0
H1498 H 0.9699 0.54821 0.5397 0.0
H1499 H 1.01089 0.55864 0.54681 0.0
H1500 H 1.01245 0.49226 0.4957 0.0
C1501 C 0.92062 0.46568 0.48631 0.0
C1502 C 0.90232 0.47425 0.49493 0.0
C1503 C 0.90595 0.49826 0.50948 0.0
C1504 C 0.92738 0.51309 0.51623 0.0
C1505 C 0.94504 0.50391 0.50795 0.0
C1506 C 0.94201 0.48105 0.49293 0.0
C1507 C 0.96418 0.47572 0.48707 0.0
C1508 C 0.96787 0.45192 0.49618 0.0
C1509 C 0.96594 0.47408 0.45944 0.0
C1510 C 0.98002 0.49881 0.50182 0.0
C1511 C 0.96849 0.51468 0.51379 0.0
C1512 C 0.97918 0.53625 0.53007 0.0
C1513 C 1.00239 0.54191 0.53412 0.0
C1514 C 1.01456 0.52629 0.52163 0.0
C1515 C 1.00334 0.50459 0.50512 0.0
H1516 H 0.38408 0.12143 0.34942 0.0
H1517 H 0.36058 0.05051 0.30059 0.0
H1518 H 0.32529 0.06234 0.28857 0.0
H1519 H 0.32845 0.12506 0.36904 0.0
H1520 H 0.3341 0.15838 0.37056 0.0
H1521 H 0.35657 0.14338 0.37712 0.0
H1522 H 0.37757 0.16289 0.34376 0.0
H1523 H 0.35549 0.17834 0.33761 0.0
H1524 H 0.3635 0.15842 0.31299 0.0
H1525 H 0.29603 0.08495 0.27687 0.0
H1526 H 0.27528 0.11627 0.26698 0.0
H1527 H 0.31507 0.16961 0.3281 0.0
C1528 C 0.37136 0.10838 0.33639 0.0
C1529 C 0.37489 0.08527 0.32567 0.0
C1530 C 0.35798 0.06837 0.30889 0.0
C1531 C 0.3379 0.07484 0.30212 0.0
C1532 C 0.33484 0.09788 0.31298 0.0
C1533 C 0.35098 0.11421 0.33006 0.0
C1534 C 0.34413 0.13831 0.33807 0.0
C1535 C 0.3406 0.14145 0.36532 0.0
C1536 C 0.36117 0.16079 0.33277 0.0
C1537 C 0.3223 0.1336 0.32168 0.0
C1538 C 0.31705 0.11012 0.30748 0.0
C1539 C 0.2995 0.10311 0.28841 0.0
C1540 C 0.28769 0.12098 0.283 0.0
C1541 C 0.29355 0.14545 0.29672 0.0
C1542 C 0.31015 0.15113 0.3172 0.0
H1543 H 0.3682 0.18381 0.5076 0.0
H1544 H 0.31264 0.12041 0.50358 0.0
H1545 H 0.33874 0.09349 0.50929 0.0
H1546 H 0.40409 0.14986 0.47546 0.0
H1547 H 0.42936 0.16673 0.49462 0.0
H1548 H 0.40647 0.1816 0.49007 0.0
H1549 H 0.40633 0.19146 0.53712 0.0
H1550 H 0.42921 0.17661 0.54181 0.0
H1551 H 0.40384 0.16645 0.5547 0.0
H1552 H 0.36995 0.07291 0.51476 0.0
H1553 H 0.40525 0.05971 0.52087 0.0
H1554 H 0.442 0.13559 0.5225 0.0
C1555 C 0.36158 0.16426 0.50791 0.0
C1556 C 0.33826 0.15429 0.50509 0.0
C1557 C 0.33033 0.12861 0.50571 0.0
C1558 C 0.34505 0.11307 0.50893 0.0
C1559 C 0.36781 0.12337 0.51166 0.0
C1560 C 0.37617 0.14834 0.5113 0.0
C1561 C 0.40155 0.15435 0.51495 0.0
C1562 C 0.41091 0.16369 0.49243 0.0
C1563 C 0.41077 0.17335 0.53855 0.0
C1564 C 0.40598 0.12885 0.51733 0.0
C1565 C 0.38617 0.11134 0.51523 0.0
C1566 C 0.3856 0.08642 0.51641 0.0
C1567 C 0.40578 0.07908 0.51975 0.0
C1568 C 0.42644 0.09651 0.52198 0.0
C1569 C 0.42649 0.12184 0.52094 0.0
H1570 H 0.70831 0.63956 0.2882 0.0
H1571 H 0.75572 0.59223 0.2885 0.0
H1572 H 0.78598 0.62879 0.28727 0.0
H1573 H 0.73449 0.67892 0.24637 0.0
H1574 H 0.72903 0.70743 0.26185 0.0
H1575 H 0.71077 0.6779 0.26311 0.0
H1576 H 0.71692 0.68775 0.31045 0.0
H1577 H 0.73518 0.71731 0.30932 0.0
H1578 H 0.74486 0.69556 0.32627 0.0
H1579 H 0.81179 0.6706 0.28618 0.0
H1580 H 0.83138 0.71298 0.28482 0.0
H1581 H 0.76907 0.73725 0.28439 0.0
C1582 C 0.72508 0.63675 0.28809 0.0
C1583 C 0.72915 0.61216 0.28859 0.0
C1584 C 0.75161 0.61015 0.28822 0.0
C1585 C 0.76908 0.63111 0.2875 0.0
C1586 C 0.76444 0.65471 0.28702 0.0
C1587 C 0.74294 0.65774 0.28724 0.0
C1588 C 0.74278 0.68543 0.28634 0.0
C1589 C 0.7284 0.68754 0.26303 0.0
C1590 C 0.73443 0.69721 0.30947 0.0
C1591 C 0.76754 0.69755 0.28564 0.0
C1592 C 0.77947 0.67913 0.2861 0.0
C1593 C 0.80242 0.68494 0.28579 0.0
C1594 C 0.81354 0.70965 0.28502 0.0
C1595 C 0.80244 0.72965 0.28445 0.0
C1596 C 0.77864 0.7231 0.28472 0.0
H1597 H 0.91043 0.49135 0.83897 0.0
H1598 H 0.96065 0.48391 0.79067 0.0
H1599 H 0.94115 0.43966 0.77539 0.0
H1600 H 0.9012 0.4279 0.85381 0.0
H1601 H 0.87186 0.42615 0.85442 0.0
H1602 H 0.89144 0.45581 0.8628 0.0
H1603 H 0.8694 0.47322 0.83006 0.0
H1604 H 0.85012 0.44347 0.8211 0.0
H1605 H 0.86495 0.45781 0.7985 0.0
H1606 H 0.91282 0.39738 0.76232 0.0
H1607 H 0.88182 0.35989 0.75694 0.0
H1608 H 0.85134 0.39681 0.81462 0.0
C1609 C 0.91765 0.48018 0.82564 0.0
C1610 C 0.93701 0.49075 0.81603 0.0
C1611 C 0.94597 0.47584 0.79847 0.0
C1612 C 0.93488 0.45085 0.78958 0.0
C1613 C 0.91515 0.44127 0.79875 0.0
C1614 C 0.90697 0.45544 0.81682 0.0
C1615 C 0.88521 0.44151 0.82326 0.0
C1616 C 0.88758 0.4376 0.85016 0.0
C1617 C 0.86632 0.4548 0.8179 0.0
C1618 C 0.88208 0.4173 0.80574 0.0
C1619 C 0.89936 0.41737 0.7916 0.0
C1620 C 0.89939 0.39707 0.77355 0.0
C1621 C 0.88163 0.37597 0.77045 0.0
C1622 C 0.86426 0.37541 0.78547 0.0
C1623 C 0.86447 0.39654 0.80302 0.0
H1624 H 0.12759 0.91966 0.12368 0.0
H1625 H 0.10784 0.85841 0.06221 0.0
H1626 H 0.09729 0.88699 0.03578 0.0
H1627 H 0.08545 0.95192 0.11011 0.0
H1628 H 0.10312 0.98281 0.11816 0.0
H1629 H 0.10974 0.95783 0.13252 0.0
H1630 H 0.14891 0.9662 0.11828 0.0
H1631 H 0.14245 0.99134 0.10403 0.0
H1632 H 0.15143 0.96632 0.08619 0.0
H1633 H 0.08473 0.92123 0.01691 0.0
H1634 H 0.07649 0.96005 1.00549 0.0
H1635 H 0.10808 1.00076 0.07694 0.0
C1636 C 0.12137 0.91237 0.10456 0.0
C1637 C 0.11859 0.88661 0.09516 0.0
C1638 C 0.11033 0.87795 0.06998 0.0
C1639 C 0.10414 0.89408 0.05475 0.0
C1640 C 0.1067 0.91916 0.06463 0.0
C1641 C 0.11563 0.92846 0.08879 0.0
C1642 C 0.11705 0.95643 0.09449 0.0
C1643 C 0.103 0.9626 0.11504 0.0
C1644 C 0.14141 0.97093 0.10114 0.0
C1645 C 0.10708 0.96119 0.06998 0.0
C1646 C 0.10094 0.93932 0.05312 0.0
C1647 C 0.08991 0.93856 0.02981 0.0
C1648 C 0.08522 0.96068 0.02347 0.0
C1649 C 0.09198 0.9835 0.04008 0.0
C1650 C 0.10316 0.98369 0.06363 0.0
H1651 H 0.97131 0.27957 0.86313 0.0
H1652 H 0.94412 0.28815 0.93263 0.0
H1653 H 0.90867 0.29078 0.91131 0.0
H1654 H 0.94343 0.32195 0.83573 0.0
H1655 H 0.93765 0.30343 0.8054 0.0
H1656 H 0.96148 0.30192 0.82583 0.0
H1657 H 0.94744 0.25407 0.82101 0.0
H1658 H 0.92361 0.25545 0.80051 0.0
H1659 H 0.91973 0.24135 0.82749 0.0
H1660 H 0.87534 0.29309 0.88297 0.0
H1661 H 0.84687 0.29349 0.84872 0.0
H1662 H 0.8941 0.28347 0.79717 0.0
C1663 C 0.95789 0.28187 0.87384 0.0
C1664 C 0.96101 0.28366 0.89981 0.0
C1665 C 0.9427 0.28674 0.91286 0.0
C1666 C 0.92223 0.28829 0.90089 0.0
C1667 C 0.91976 0.28669 0.87555 0.0
C1668 C 0.93699 0.28342 0.86206 0.0
C1669 C 0.92954 0.28218 0.83487 0.0
C1670 C 0.94388 0.30365 0.82487 0.0
C1671 C 0.93012 0.25675 0.8201 0.0
C1672 C 0.90566 0.28534 0.83541 0.0
C1673 C 0.90039 0.28798 0.85912 0.0
C1674 C 0.87935 0.29118 0.86431 0.0
C1675 C 0.86328 0.29167 0.84478 0.0
C1676 C 0.86822 0.289 0.8203 0.0
C1677 C 0.88975 0.28568 0.81571 0.0
H1678 H 0.63006 0.25273 0.58007 0.0
H1679 H 0.57916 0.26063 0.62767 0.0
H1680 H 0.56503 0.21493 0.61968 0.0
H1681 H 0.597 0.20257 0.53513 0.0
H1682 H 0.6192 0.18666 0.53047 0.0
H1683 H 0.62552 0.21999 0.53998 0.0
H1684 H 0.65162 0.21604 0.57767 0.0
H1685 H 0.64538 0.18269 0.56827 0.0
H1686 H 0.64097 0.1959 0.59858 0.0
H1687 H 0.55506 0.16875 0.60483 0.0
H1688 H 0.55123 0.12483 0.58634 0.0
H1689 H 0.60983 0.14573 0.54998 0.0
C1690 C 0.61595 0.24488 0.58886 0.0
C1691 C 0.60568 0.26044 0.60448 0.0
C1692 C 0.58737 0.24925 0.61572 0.0
C1693 C 0.57919 0.22326 0.61124 0.0
C1694 C 0.58962 0.20855 0.5957 0.0
C1695 C 0.60775 0.21888 0.58487 0.0
C1696 C 0.61601 0.19874 0.56912 0.0
C1697 C 0.61432 0.2022 0.54207 0.0
C1698 C 0.63991 0.19832 0.57901 0.0
C1699 C 0.59954 0.17546 0.57257 0.0
C1700 C 0.58439 0.18167 0.58787 0.0
C1701 C 0.56696 0.16368 0.59305 0.0
C1702 C 0.5649 0.13874 0.58235 0.0
C1703 C 0.5803 0.13173 0.56681 0.0
C1704 C 0.59798 0.15042 0.56205 0.0
H1705 H 0.58331 0.78647 0.35611 0.0
H1706 H 0.61011 0.7852 0.4308 0.0
H1707 H 0.64722 0.78618 0.4177 0.0
H1708 H 0.61771 0.74853 0.32505 0.0
H1709 H 0.62158 0.76676 0.30085 0.0
H1710 H 0.59662 0.76435 0.31558 0.0
H1711 H 0.60433 0.81248 0.32626 0.0
H1712 H 0.62929 0.81503 0.31159 0.0
H1713 H 0.63067 0.82959 0.3431 0.0
H1714 H 0.68165 0.7881 0.39704 0.0
H1715 H 0.71148 0.79225 0.37046 0.0
H1716 H 0.66354 0.7946 0.30913 0.0
C1717 C 0.59695 0.78606 0.36959 0.0
C1718 C 0.59372 0.78559 0.3945 0.0
C1719 C 0.61211 0.78553 0.41165 0.0
C1720 C 0.63329 0.78603 0.40437 0.0
C1721 C 0.63601 0.78677 0.37983 0.0
C1722 C 0.61841 0.78688 0.36267 0.0
C1723 C 0.62628 0.78896 0.3377 0.0
C1724 C 0.61487 0.76577 0.31867 0.0
C1725 C 0.62241 0.81295 0.32917 0.0
C1726 C 0.651 0.7901 0.34361 0.0
C1727 C 0.65615 0.78861 0.36799 0.0
C1728 C 0.67783 0.7894 0.37792 0.0
C1729 C 0.69475 0.79198 0.36264 0.0
C1730 C 0.69013 0.79403 0.3376 0.0
C1731 C 0.66778 0.79285 0.32804 0.0
H1732 H 0.14433 0.32289 0.47583 0.0
H1733 H 0.13411 0.29427 0.39755 0.0
H1734 H 0.12887 0.25125 0.40647 0.0
H1735 H 0.17295 0.27587 0.49538 0.0
H1736 H 0.15937 0.27512 0.52273 0.0
H1737 H 0.16527 0.30343 0.51002 0.0
H1738 H 0.12357 0.30494 0.50789 0.0
H1739 H 0.11755 0.27666 0.52046 0.0
H1740 H 0.10278 0.27848 0.49151 0.0
H1741 H 0.12064 0.21115 0.42438 0.0
H1742 H 0.11072 0.17806 0.44939 0.0
H1743 H 0.12578 0.23402 0.51544 0.0
C1744 C 0.14141 0.3077 0.46045 0.0
C1745 C 0.13964 0.31202 0.43594 0.0
C1746 C 0.13569 0.29147 0.41647 0.0
C1747 C 0.13268 0.26697 0.42137 0.0
C1748 C 0.13391 0.26343 0.44581 0.0
C1749 C 0.13838 0.28332 0.46499 0.0
C1750 C 0.13721 0.27478 0.48957 0.0
C1751 C 0.16006 0.28277 0.50535 0.0
C1752 C 0.1192 0.28427 0.50313 0.0
C1753 C 0.13074 0.24689 0.48128 0.0
C1754 C 0.12914 0.2406 0.45602 0.0
C1755 C 0.1221 0.21589 0.44417 0.0
C1756 C 0.11636 0.19726 0.4585 0.0
C1757 C 0.11754 0.20348 0.48437 0.0
C1758 C 0.12515 0.2286 0.49579 0.0
H1759 H 0.60037 0.28302 0.15587 0.0
H1760 H 0.56597 0.29703 0.21943 0.0
H1761 H 0.6005 0.29968 0.24674 0.0
H1762 H 0.62872 0.24272 0.1788 0.0
H1763 H 0.65399 0.25273 0.16567 0.0
H1764 H 0.62789 0.25607 0.15112 0.0
H1765 H 0.64387 0.30341 0.15359 0.0
H1766 H 0.67018 0.30018 0.1679 0.0
H1767 H 0.65608 0.32232 0.18281 0.0
H1768 H 0.63771 0.29657 0.26702 0.0
H1769 H 0.67434 0.28733 0.27841 0.0
H1770 H 0.68364 0.27427 0.20144 0.0
C1771 C 0.60024 0.28741 0.17552 0.0
C1772 C 0.58052 0.29004 0.18552 0.0
C1773 C 0.58093 0.29506 0.21136 0.0
C1774 C 0.60047 0.29666 0.22702 0.0
C1775 C 0.61944 0.29319 0.21654 0.0
C1776 C 0.61949 0.28878 0.19137 0.0
C1777 C 0.64133 0.28331 0.18467 0.0
C1778 C 0.63775 0.25716 0.16916 0.0
C1779 C 0.65359 0.30352 0.17147 0.0
C1780 C 0.6533 0.2846 0.20997 0.0
C1781 C 0.6406 0.29073 0.22816 0.0
C1782 C 0.64791 0.29204 0.25294 0.0
C1783 C 0.6687 0.28679 0.25924 0.0
C1784 C 0.68171 0.27998 0.24079 0.0
C1785 C 0.67394 0.2792 0.21592 0.0
H1786 H 0.6153 0.93027 0.91546 0.0
H1787 H 0.68137 0.94107 0.95385 0.0
H1788 H 0.67466 0.97602 0.98296 0.0
H1789 H 0.60578 0.99802 0.93224 0.0
H1790 H 0.57755 0.98343 0.93462 0.0
H1791 H 0.5926 0.96875 0.9126 0.0
H1792 H 0.58103 0.92949 0.93406 0.0
H1793 H 0.56946 0.94659 0.95762 0.0
H1794 H 0.59155 0.93167 0.9659 0.0
H1795 H 0.65836 1.00178 1.01269 0.0
H1796 H 0.6338 1.01726 0.0409 0.0
H1797 H 0.57706 0.98816 0.98487 0.0
C1798 C 0.62865 0.941 0.92918 0.0
C1799 C 0.64899 0.93375 0.93222 0.0
C1800 C 0.66592 0.94707 0.95103 0.0
C1801 C 0.66221 0.96687 0.96757 0.0
C1802 C 0.64136 0.97267 0.96511 0.0
C1803 C 0.62483 0.96023 0.94624 0.0
C1804 C 0.60249 0.96589 0.95076 0.0
C1805 C 0.5941 0.9798 0.93131 0.0
C1806 C 0.58514 0.94199 0.95219 0.0
C1807 C 0.60891 0.98273 0.97542 0.0
C1808 C 0.63145 0.98678 0.98316 0.0
C1809 C 0.64083 0.99936 1.00655 0.0
C1810 C 0.62677 1.00787 0.02248 0.0
C1811 C 0.60372 1.00388 0.01478 0.0
C1812 C 0.59475 0.99172 0.99085 0.0
H1813 H 0.93636 0.7401 0.67489 0.0
H1814 H 0.99052 0.76419 0.73455 0.0
H1815 H 0.96327 0.76519 0.76435 0.0
H1816 H 0.90525 0.7791 0.69566 0.0
H1817 H 0.87836 0.75822 0.68616 0.0
H1818 H 0.90155 0.75378 0.67023 0.0
H1819 H 0.89577 0.70846 0.6787 0.0
H1820 H 0.87233 0.71268 0.69457 0.0
H1821 H 0.89502 0.70267 0.70977 0.0
H1822 H 0.93125 0.77339 0.78593 0.0
H1823 H 0.8967 0.78473 0.79792 0.0
H1824 H 0.86296 0.75278 0.72488 0.0
C1825 C 0.94246 0.74467 0.6943 0.0
C1826 C 0.96551 0.75202 0.70247 0.0
C1827 C 0.97292 0.75826 0.72794 0.0
C1828 C 0.95754 0.75887 0.74499 0.0
C1829 C 0.93488 0.75267 0.73624 0.0
C1830 C 0.92735 0.74516 0.71148 0.0
C1831 C 0.90242 0.74225 0.70645 0.0
C1832 C 0.89657 0.75936 0.68859 0.0
C1833 C 0.89069 0.71488 0.69681 0.0
C1834 C 0.89724 0.75068 0.73202 0.0
C1835 C 0.91614 0.75639 0.74902 0.0
C1836 C 0.91618 0.76811 0.77303 0.0
C1837 C 0.89656 0.77456 0.77967 0.0
C1838 C 0.87718 0.76899 0.76244 0.0
C1839 C 0.87736 0.75627 0.73861 0.0
H1840 H 0.13689 1.01577 0.84049 0.0
H1841 H 0.20183 0.06163 0.87095 0.0
H1842 H 0.18822 0.06952 0.91132 0.0
H1843 H 0.1029 0.05058 0.87689 0.0
H1844 H 0.08338 0.0233 0.88173 0.0
H1845 H 0.09761 1.02219 0.85478 0.0
H1846 H 0.11221 0.98464 0.86599 0.0
H1847 H 0.09798 0.98562 0.89294 0.0
H1848 H 0.12749 0.98718 0.89584 0.0
H1849 H 0.1659 0.07437 0.95059 0.0
H1850 H 0.14033 0.07123 0.98251 0.0
H1851 H 0.09033 1.01852 0.92999 0.0
C1852 C 0.14833 0.02767 0.85553 0.0
C1853 C 0.17087 0.03833 0.85138 0.0
C1854 C 0.18472 0.05319 0.87256 0.0
C1855 C 0.17695 0.05787 0.89599 0.0
C1856 C 0.15493 0.04723 0.89939 0.0
C1857 C 0.1409 0.03198 0.87967 0.0
C1858 C 0.11835 1.02162 0.88874 0.0
C1859 C 0.09943 0.0299 0.87469 0.0
C1860 C 0.11373 0.99306 0.88569 0.0
C1861 C 0.12168 0.03347 0.91633 0.0
C1862 C 0.14288 0.04857 0.92197 0.0
C1863 C 0.14945 0.06226 0.94598 0.0
C1864 C 0.13456 0.06044 0.96435 0.0
C1865 C 0.11282 0.04455 0.95982 0.0
C1866 C 0.10665 0.03085 0.93495 0.0
H1867 H 0.86434 0.41418 0.56522 0.0
H1868 H 0.80288 0.43963 0.56305 0.0
H1869 H 0.79472 0.4227 0.60096 0.0
H1870 H 0.8448 0.35872 0.57924 0.0
H1871 H 0.86852 0.35707 0.59977 0.0
H1872 H 0.87222 0.37623 0.57649 0.0
H1873 H 0.89073 0.41498 0.60935 0.0
H1874 H 0.88758 0.39578 0.63285 0.0
H1875 H 0.87648 0.42337 0.63514 0.0
H1876 H 0.78946 0.39458 0.6325 0.0
H1877 H 0.78987 0.3622 0.6587 0.0
H1878 H 0.85547 0.35675 0.64051 0.0
C1879 C 0.84965 0.41706 0.57339 0.0
C1880 C 0.83423 0.42812 0.56158 0.0
C1881 C 0.81497 0.43143 0.57226 0.0
C1882 C 0.81022 0.42183 0.59368 0.0
C1883 C 0.82525 0.40971 0.60424 0.0
C1884 C 0.84491 0.40797 0.59481 0.0
C1885 C 0.85718 0.39187 0.60778 0.0
C1886 C 0.86087 0.36967 0.58974 0.0
C1887 C 0.8793 0.40744 0.62214 0.0
C1888 C 0.84067 0.38343 0.62488 0.0
C1889 C 0.82246 0.39408 0.62286 0.0
C1890 C 0.80393 0.38673 0.63483 0.0
C1891 C 0.80417 0.36819 0.64937 0.0
C1892 C 0.82282 0.35736 0.65167 0.0
C1893 C 0.84128 0.36527 0.63947 0.0
H1894 H 0.49455 0.09292 0.38146 0.0
H1895 H 0.44009 0.09337 0.42543 0.0
H1896 H 0.46612 0.09696 0.46287 0.0
H1897 H 0.51716 0.0531 0.41019 0.0
H1898 H 0.54595 0.06701 0.40873 0.0
H1899 H 0.52468 0.07074 0.38625 0.0
H1900 H 0.53821 0.11878 0.39718 0.0
H1901 H 0.55976 0.11524 0.41962 0.0
H1902 H 0.54043 0.13397 0.42861 0.0
H1903 H 0.49573 0.09309 0.49371 0.0
H1904 H 0.52675 0.08105 0.51611 0.0
H1905 H 0.56233 0.08211 0.45259 0.0
C1906 C 0.48822 0.09459 0.39903 0.0
C1907 C 0.46534 0.09295 0.40062 0.0
C1908 C 0.4576 0.09471 0.42388 0.0
C1909 C 0.47228 0.09689 0.44522 0.0
C1910 C 0.4946 0.09741 0.44291 0.0
C1911 C 0.50261 0.09645 0.42043 0.0
C1912 C 0.5265 0.09364 0.42247 0.0
C1913 C 0.52868 0.0697 0.40594 0.0
C1914 C 0.54215 0.11679 0.41663 0.0
C1915 C 0.53031 0.09185 0.44939 0.0
C1916 C 0.51184 0.09463 0.46089 0.0
C1917 C 0.51038 0.09121 0.48504 0.0
C1918 C 0.52797 0.08411 0.49755 0.0
C1919 C 0.54672 0.08055 0.48601 0.0
C1920 C 0.54825 0.08518 0.46189 0.0
H1921 H 0.77538 0.76003 0.07964 0.0
H1922 H 0.82956 0.72219 0.07104 0.0
H1923 H 0.84182 0.73372 0.11538 0.0
H1924 H 0.80554 0.81126 0.12724 0.0
H1925 H 0.7822 0.81213 0.14428 0.0
H1926 H 0.77754 0.80156 0.11155 0.0
H1927 H 0.75235 0.76013 0.11782 0.0
H1928 H 0.75695 0.77057 0.15057 0.0
H1929 H 0.76312 0.74145 0.13779 0.0
H1930 H 0.84891 0.74921 0.15981 0.0
H1931 H 0.84985 0.76648 0.20311 0.0
H1932 H 0.79053 0.79386 0.18562 0.0
C1933 C 0.78989 0.7543 0.08709 0.0
C1934 C 0.80152 0.74019 0.07164 0.0
C1935 C 0.82028 0.73288 0.08229 0.0
C1936 C 0.82745 0.73941 0.10753 0.0
C1937 C 0.81565 0.75315 0.12218 0.0
C1938 C 0.79721 0.76045 0.11254 0.0
C1939 C 0.78741 0.77464 0.13288 0.0
C1940 C 0.78822 0.8015 0.12873 0.0
C1941 C 0.76354 0.76087 0.13488 0.0
C1942 C 0.80331 0.77416 0.15536 0.0
C1943 C 0.8195 0.76176 0.14848 0.0
C1944 C 0.83632 0.75895 0.16544 0.0
C1945 C 0.83672 0.76903 0.19012 0.0
C1946 C 0.82034 0.78178 0.19805 0.0
C1947 C 0.80328 0.78424 0.18029 0.0
H1948 H 0.14659 0.06711 0.71347 0.0
H1949 H 0.16946 0.99877 0.69783 0.0
H1950 H 0.15379 0.9942 0.65398 0.0
H1951 H 0.09516 0.04858 0.67263 0.0
H1952 H 0.09686 0.0786 0.66348 0.0
H1953 H 0.11005 0.07649 0.69316 0.0
H1954 H 0.14765 0.10057 0.68322 0.0
H1955 H 0.13456 0.10289 0.65355 0.0
H1956 H 0.15851 0.08934 0.65574 0.0
H1957 H 0.13207 0.99626 0.60992 0.0
H1958 H 0.11197 1.00602 0.57338 0.0
H1959 H 0.1049 0.07482 0.61635 0.0
C1960 C 0.1486 0.05113 0.70094 0.0
C1961 C 0.15972 0.03329 0.71014 0.0
C1962 C 0.16154 1.01297 0.6922 0.0
C1963 C 0.15238 1.01018 0.66692 0.0
C1964 C 0.14138 0.02794 0.65884 0.0
C1965 C 0.13985 0.04831 0.67552 0.0
C1966 C 0.12762 0.06519 0.6624 0.0
C1967 C 0.10616 0.06735 0.67359 0.0
C1968 C 0.143 0.09104 0.66382 0.0
C1969 C 0.1222 0.05131 0.63565 0.0
C1970 C 0.13009 0.02966 0.63404 0.0
C1971 C 0.12625 1.01337 0.61142 0.0
C1972 C 0.11456 1.01915 0.5904 0.0
C1973 C 0.10652 0.04144 0.59092 0.0
C1974 C 0.11071 0.0577 0.61442 0.0
H1975 H 0.81477 0.39058 0.44561 0.0
H1976 H 0.83806 0.45898 0.41753 0.0
H1977 H 0.84357 0.43417 0.37874 0.0
H1978 H 0.85222 0.35598 0.41868 0.0
H1979 H 0.8318 0.32683 0.41157 0.0
H1980 H 0.83004 0.34978 0.43741 0.0
H1981 H 0.78977 0.34965 0.41988 0.0
H1982 H 0.79128 0.32646 0.39421 0.0
H1983 H 0.78435 0.35529 0.38898 0.0
H1984 H 0.84629 0.40278 0.34386 0.0
H1985 H 0.84254 0.36655 0.31203 0.0
H1986 H 0.81743 0.31734 0.36207 0.0
C1987 C 0.82101 0.40034 0.43126 0.0
C1988 C 0.8261 0.42667 0.43446 0.0
C1989 C 0.83401 0.43883 0.41531 0.0
C1990 C 0.83736 0.42491 0.39338 0.0
C1991 C 0.8326 0.39899 0.39105 0.0
C1992 C 0.82431 0.38676 0.40927 0.0
C1993 C 0.81965 0.35868 0.40161 0.0
C1994 C 0.83431 0.34714 0.41832 0.0
C1995 C 0.79478 0.34683 0.40113 0.0
C1996 C 0.82641 0.357 0.37599 0.0
C1997 C 0.83409 0.38057 0.37059 0.0
C1998 C 0.84054 0.38425 0.34793 0.0
C1999 C 0.83851 0.36336 0.32999 0.0
C2000 C 0.83011 0.33896 0.33466 0.0
C2001 C 0.82434 0.33569 0.35816 0.0
H2002 H 0.46105 1.01634 0.2734 0.0
H2003 H 0.43287 0.07936 0.26265 0.0
H2004 H 0.43555 0.07045 0.218 0.0
H2005 H 0.50057 0.02511 0.23747 0.0
H2006 H 0.49887 0.99296 0.22473 0.0
H2007 H 0.48974 1.0006 0.25405 0.0
H2008 H 0.45085 0.97168 0.23838 0.0
H2009 H 0.45998 0.96376 0.20888 0.0
H2010 H 0.43533 0.97596 0.21086 0.0
H2011 H 0.44993 0.06096 0.17778 0.0
H2012 H 0.47321 0.05106 0.14562 0.0
H2013 H 0.48877 0.99145 0.18133 0.0
C2014 C 0.45473 0.02764 0.26138 0.0
C2015 C 0.4468 0.04845 0.27107 0.0
C2016 C 0.43882 0.06319 0.25524 0.0
C2017 C 0.44021 0.05818 0.22995 0.0
C2018 C 0.44895 0.03794 0.22094 0.0
C2019 C 0.45557 1.02253 0.23616 0.0
C2020 C 0.46671 1.00382 0.22274 0.0
C2021 C 0.49036 1.00578 0.2355 0.0
C2022 C 0.45235 0.97723 0.22005 0.0
C2023 C 0.46719 1.01252 0.19823 0.0
C2024 C 0.45643 0.03183 0.19726 0.0
C2025 C 0.4577 0.04529 0.17793 0.0
C2026 C 0.47095 0.03948 0.15967 0.0
C2027 C 0.48282 1.02047 0.16099 0.0
C2028 C 0.4799 1.00609 0.17985 0.0
H2029 H 0.79415 0.7574 0.94839 0.0
H2030 H 0.79532 0.68182 0.91617 0.0
H2031 H 0.80148 0.69534 0.87661 0.0
H2032 H 0.76545 0.77203 0.89262 0.0
H2033 H 0.78121 0.80386 0.89775 0.0
H2034 H 0.77571 0.78814 0.92347 0.0
H2035 H 0.81799 0.798 0.93828 0.0
H2036 H 0.82362 0.8136 0.91255 0.0
H2037 H 0.83664 0.7884 0.91763 0.0
H2038 H 0.81096 0.71749 0.84132 0.0
H2039 H 0.81917 0.74608 0.81149 0.0
H2040 H 0.81093 0.80739 0.86521 0.0
C2041 C 0.79532 0.74363 0.9329 0.0
C2042 C 0.79424 0.71846 0.93561 0.0
C2043 C 0.79606 0.70117 0.91479 0.0
C2044 C 0.79961 0.70868 0.89212 0.0
C2045 C 0.8011 0.73361 0.8902 0.0
C2046 C 0.79871 0.75081 0.90988 0.0
C2047 C 0.80131 0.77655 0.90273 0.0
C2048 C 0.77963 0.78568 0.90423 0.0
C2049 C 0.82107 0.79524 0.91875 0.0
C2050 C 0.80595 0.77115 0.87621 0.0
C2051 C 0.80577 0.74623 0.8694 0.0
C2052 C 0.81056 0.7369 0.84622 0.0
C2053 C 0.81529 0.75332 0.8294 0.0
C2054 C 0.81542 0.77891 0.83581 0.0
C2055 C 0.81069 0.78785 0.85961 0.0
H2056 H 0.8558 0.096 0.03552 0.0
H2057 H 0.8838 0.16818 0.0168 0.0
H2058 H 0.91784 0.15447 1.00799 0.0
H2059 H 0.91029 0.08599 0.06351 0.0
H2060 H 0.90281 0.05306 0.0515 0.0
H2061 H 0.88152 0.06941 0.05942 0.0
H2062 H 0.8607 0.05372 0.01544 0.0
H2063 H 0.88206 0.03768 1.00726 0.0
H2064 H 0.87507 0.06019 0.98946 0.0
H2065 H 0.94607 0.13196 0.99549 0.0
H2066 H 0.96972 0.10263 0.98452 0.0
H2067 H 0.92537 0.04504 1.01267 0.0
C2068 C 0.86938 0.10908 0.03027 0.0
C2069 C 0.86714 0.13311 0.02678 0.0
C2070 C 0.8851 0.14963 0.0195 0.0
C2071 C 0.90455 0.14206 1.01447 0.0
C2072 C 0.90594 0.11799 0.01708 0.0
C2073 C 0.88913 0.10182 0.02525 0.0
C2074 C 0.89471 0.07654 0.02522 0.0
C2075 C 0.8975 0.07092 0.05148 0.0
C2076 C 0.87708 0.05582 1.00833 0.0
C2077 C 0.9168 0.08088 0.01487 0.0
C2078 C 0.92289 0.10498 1.0104 0.0
C2079 C 0.94175 0.11316 0.99935 0.0
C2080 C 0.95498 0.09634 0.99301 0.0
C2081 C 0.94945 0.0717 0.99788 0.0
C2082 C 0.93011 0.06389 1.00902 0.0
H2083 H 0.41801 0.45538 0.06897 0.0
H2084 H 0.41079 0.41256 0.99557 0.0
H2085 H 0.44603 0.43849 0.98798 0.0
H2086 H 0.44371 0.51571 0.05467 0.0
H2087 H 0.46329 0.5251 0.08226 0.0
H2088 H 0.43695 0.50385 0.08225 0.0
H2089 H 0.45749 0.47183 0.09741 0.0
H2090 H 0.48388 0.49303 0.0975 0.0
H2091 H 0.47835 0.46186 0.08024 0.0
H2092 H 0.48043 0.46946 0.98692 0.0
H2093 H 0.51472 0.50209 0.9935 0.0
H2094 H 0.50389 0.52395 0.06901 0.0
C2095 C 0.42387 0.45165 0.05131 0.0
C2096 C 0.41152 0.43194 0.03277 0.0
C2097 C 0.41992 0.42742 1.01004 0.0
C2098 C 0.43992 0.44212 1.00551 0.0
C2099 C 0.45177 0.46118 0.02404 0.0
C2100 C 0.44435 0.46592 0.04662 0.0
C2101 C 0.4612 0.48711 0.06345 0.0
C2102 C 0.45065 0.50926 0.07111 0.0
C2103 C 0.47079 0.4779 0.08599 0.0
C2104 C 0.47892 0.49366 0.04659 0.0
C2105 C 0.47283 0.47844 0.02392 0.0
C2106 C 0.48562 0.48116 1.00475 0.0
C2107 C 0.50528 0.49972 1.00877 0.0
C2108 C 0.51259 0.51518 0.03199 0.0
C2109 C 0.49904 0.51218 0.05117 0.0
H2110 H 0.43948 0.67009 0.78127 0.0
H2111 H 0.38659 0.6089 0.74272 0.0
H2112 H 0.36158 0.6376 0.74061 0.0
H2113 H 0.40303 0.70281 0.81707 0.0
H2114 H 0.41748 0.73393 0.81488 0.0
H2115 H 0.43224 0.70916 0.81356 0.0
H2116 H 0.44458 0.71846 0.77215 0.0
H2117 H 0.42988 0.74327 0.7734 0.0
H2118 H 0.42388 0.71856 0.74716 0.0
H2119 H 0.34031 0.67324 0.74235 0.0
H2120 H 0.32562 0.71096 0.74748 0.0
H2121 H 0.38975 0.75355 0.78507 0.0
C2122 C 0.42268 0.66257 0.77221 0.0
C2123 C 0.41578 0.63599 0.76201 0.0
C2124 C 0.3932 0.6283 0.75072 0.0
C2125 C 0.3785 0.64484 0.74942 0.0
C2126 C 0.38565 0.67029 0.75948 0.0
C2127 C 0.40731 0.67931 0.77071 0.0
C2128 C 0.41018 0.70789 0.78002 0.0
C2129 C 0.4161 0.71381 0.80805 0.0
C2130 C 0.42822 0.72295 0.76745 0.0
C2131 C 0.38696 0.71335 0.77241 0.0
C2132 C 0.37324 0.69104 0.76054 0.0
C2133 C 0.35116 0.6906 0.75169 0.0
C2134 C 0.34278 0.71272 0.75483 0.0
C2135 C 0.35573 0.73657 0.76687 0.0
C2136 C 0.37864 0.73636 0.77576 0.0
H2137 H 0.24214 0.65946 0.51644 0.0
H2138 H 0.27436 0.64636 0.58443 0.0
H2139 H 0.23781 0.62488 0.5944 0.0
H2140 H 0.19125 0.66967 0.53791 0.0
H2141 H 0.17398 0.653 0.51009 0.0
H2142 H 0.20245 0.66834 0.50899 0.0
H2143 H 0.21005 0.62669 0.48793 0.0
H2144 H 0.18159 0.61131 0.48891 0.0
H2145 H 0.20395 0.59953 0.50242 0.0
H2146 H 0.19769 0.60575 0.59715 0.0
H2147 H 0.15732 0.58664 0.59072 0.0
H2148 H 0.1522 0.60994 0.51952 0.0
C2149 C 0.2414 0.65226 0.53353 0.0
C2150 C 0.26083 0.65475 0.5499 0.0
C2151 C 0.2595 0.64463 0.57179 0.0
C2152 C 0.23889 0.63252 0.57759 0.0
C2153 C 0.21997 0.63036 0.56105 0.0
C2154 C 0.2211 0.63961 0.53929 0.0
C2155 C 0.19855 0.63363 0.52401 0.0
C2156 C 0.19113 0.65759 0.52003 0.0
C2157 C 0.19855 0.61679 0.49937 0.0
C2158 C 0.18452 0.61979 0.54071 0.0
C2159 C 0.1971 0.61832 0.56209 0.0
C2160 C 0.18766 0.60669 0.58045 0.0
C2161 C 0.16475 0.59601 0.5767 0.0
C2162 C 0.15173 0.59681 0.55463 0.0
C2163 C 0.16179 0.60895 0.53652 0.0
H2164 H 0.77993 0.03305 0.75393 0.0
H2165 H 0.73439 0.97675 0.70002 0.0
H2166 H 0.76258 0.95117 0.69754 0.0
H2167 H 0.83456 1.0223 0.7329 0.0
H2168 H 0.84708 0.02629 0.76427 0.0
H2169 H 0.82641 0.04331 0.75647 0.0
H2170 H 0.80313 0.0255 0.78897 0.0
H2171 H 0.82347 1.00823 0.79665 0.0
H2172 H 0.79481 0.99218 0.78721 0.0
H2173 H 0.79208 0.9289 0.70613 0.0
H2174 H 0.81955 0.9101 0.72684 0.0
H2175 H 0.84512 0.97921 0.77776 0.0
C2176 C 0.77647 1.01593 0.74069 0.0
C2177 C 0.75547 1.00707 0.72651 0.0
C2178 C 0.75071 0.98396 0.71048 0.0
C2179 C 0.76662 0.96941 0.70896 0.0
C2180 C 0.78696 0.97816 0.72394 0.0
C2181 C 0.79191 1.00087 0.7396 0.0
C2182 C 0.81292 1.00382 0.7571 0.0
C2183 C 0.83134 0.0252 0.75239 0.0
C2184 C 0.80829 1.00764 0.78406 0.0
C2185 C 0.81848 0.9788 0.7496 0.0
C2186 C 0.80368 0.96463 0.72991 0.0
C2187 C 0.80417 0.94007 0.72102 0.0
C2188 C 0.81994 0.92958 0.73275 0.0
C2189 C 0.83487 0.94353 0.75324 0.0
C2190 C 0.83426 0.9685 0.76165 0.0
H2191 H 0.7722 0.92575 0.51844 0.0
H2192 H 0.80803 0.96567 0.58845 0.0
H2193 H 0.77737 0.98709 0.5952 0.0
H2194 H 0.7534 0.97789 0.50144 0.0
H2195 H 0.72674 0.96009 0.48597 0.0
H2196 H 0.75017 0.9457 0.48774 0.0
H2197 H 0.72765 0.91099 0.50781 0.0
H2198 H 0.70412 0.92526 0.50605 0.0
H2199 H 0.71538 0.9194 0.53516 0.0
H2200 H 0.74317 1.00467 0.59421 0.0
H2201 H 0.70955 1.02024 0.58396 0.0
H2202 H 0.69689 0.97196 0.51293 0.0
C2203 C 0.77331 0.93864 0.53538 0.0
C2204 C 0.7923 0.94375 0.55318 0.0
C2205 C 0.79354 0.96134 0.57474 0.0
C2206 C 0.77618 0.97354 0.57874 0.0
C2207 C 0.75779 0.96836 0.56077 0.0
C2208 C 0.75632 0.95156 0.53937 0.0
C2209 C 0.73561 0.95105 0.52214 0.0
C2210 C 0.74186 0.95917 0.49789 0.0
C2211 C 0.71975 0.92513 0.51753 0.0
C2212 C 0.72576 0.97026 0.53715 0.0
C2213 C 0.73865 0.97964 0.55956 0.0
C2214 C 0.73296 0.99745 0.57672 0.0
C2215 C 0.71376 1.00611 0.57077 0.0
C2216 C 0.70054 0.99732 0.54768 0.0
C2217 C 0.70668 0.97908 0.5307 0.0
H2218 H 0.43825 0.47187 0.7786 0.0
H2219 H 0.39145 0.51055 0.74755 0.0
H2220 H 0.36152 0.47244 0.74366 0.0
H2221 H 0.41478 0.4102 0.74112 0.0
H2222 H 0.41897 0.39292 0.76551 0.0
H2223 H 0.43715 0.42289 0.76577 0.0
H2224 H 0.42805 0.4386 0.80895 0.0
H2225 H 0.40991 0.40866 0.80885 0.0
H2226 H 0.39942 0.43659 0.81401 0.0
H2227 H 0.33616 0.42967 0.74219 0.0
H2228 H 0.31662 0.38762 0.74526 0.0
H2229 H 0.37775 0.37333 0.77893 0.0
C2230 C 0.42171 0.47244 0.77092 0.0
C2231 C 0.4177 0.49502 0.76327 0.0
C2232 C 0.3955 0.49421 0.75357 0.0
C2233 C 0.37823 0.47235 0.75124 0.0
C2234 C 0.38281 0.45072 0.7588 0.0
C2235 C 0.40401 0.45057 0.76865 0.0
C2236 C 0.40405 0.42469 0.7758 0.0
C2237 C 0.41967 0.41192 0.76119 0.0
C2238 C 0.41076 0.42729 0.80355 0.0
C2239 C 0.37959 0.41026 0.76842 0.0
C2240 C 0.3679 0.42593 0.75851 0.0
C2241 C 0.3453 0.41752 0.75006 0.0
C2242 C 0.33422 0.3931 0.75195 0.0
C2243 C 0.34502 0.37608 0.7624 0.0
C2244 C 0.36849 0.38513 0.77066 0.0
H2245 H 0.21838 0.64288 0.27508 0.0
H2246 H 0.23214 0.61084 0.20366 0.0
H2247 H 0.25691 0.65106 0.2004 0.0
H2248 H 0.22109 0.70698 0.2635 0.0
H2249 H 0.23496 0.72049 0.29395 0.0
H2250 H 0.2159 0.69042 0.28873 0.0
H2251 H 0.24692 0.67176 0.30818 0.0
H2252 H 0.26607 0.70167 0.31295 0.0
H2253 H 0.27308 0.67492 0.29572 0.0
H2254 H 0.28176 0.69445 0.20615 0.0
H2255 H 0.30539 0.73692 0.22125 0.0
H2256 H 0.27701 0.73808 0.29002 0.0
C2257 C 0.22608 0.64464 0.25846 0.0
C2258 C 0.22316 0.62413 0.23942 0.0
C2259 C 0.2341 0.62662 0.2183 0.0
C2260 C 0.24815 0.64932 0.21629 0.0
C2261 C 0.25123 0.6691 0.23573 0.0
C2262 C 0.24052 0.66693 0.25644 0.0
C2263 C 0.24821 0.69006 0.27574 0.0
C2264 C 0.22889 0.70274 0.28075 0.0
C2265 C 0.25923 0.68423 0.29953 0.0
C2266 C 0.26505 0.70542 0.26278 0.0
C2267 C 0.26639 0.6933 0.2396 0.0
C2268 C 0.28087 0.70415 0.2243 0.0
C2269 C 0.29424 0.72814 0.23298 0.0
C2270 C 0.29322 0.74053 0.25685 0.0
C2271 C 0.27845 0.72891 0.2718 0.0
H2272 H 0.51243 0.70838 0.47293 0.0
H2273 H 0.56464 0.72581 0.42685 0.0
H2274 H 0.57959 0.69038 0.43725 0.0
H2275 H 0.54443 0.69017 0.52036 0.0
H2276 H 0.52292 0.66461 0.52516 0.0
H2277 H 0.51553 0.69072 0.51353 0.0
H2278 H 0.49173 0.66096 0.47582 0.0
H2279 H 0.49893 0.63472 0.48745 0.0
H2280 H 0.50424 0.63978 0.45698 0.0
H2281 H 0.59135 0.65602 0.4559 0.0
H2282 H 0.59654 0.62152 0.47739 0.0
H2283 H 0.53514 0.6228 0.50893 0.0
C2284 C 0.52683 0.70453 0.46475 0.0
C2285 C 0.53731 0.72003 0.44896 0.0
C2286 C 0.55613 0.71423 0.43873 0.0
C2287 C 0.56485 0.69416 0.44466 0.0
C2288 C 0.55438 0.67958 0.46053 0.0
C2289 C 0.5355 0.68411 0.47006 0.0
C2290 C 0.52745 0.6653 0.48656 0.0
C2291 C 0.5276 0.6785 0.51297 0.0
C2292 C 0.50421 0.64924 0.47607 0.0
C2293 C 0.54504 0.64985 0.48522 0.0
C2294 C 0.56051 0.65868 0.47027 0.0
C2295 C 0.57913 0.64871 0.46729 0.0
C2296 C 0.582 0.62916 0.47971 0.0
C2297 C 0.56619 0.61926 0.49468 0.0
C2298 C 0.54733 0.6297 0.49731 0.0
H2299 H 0.66978 0.33889 0.69653 0.0
H2300 H 0.70663 0.34598 0.63393 0.0
H2301 H 0.74 0.34123 0.65819 0.0
H2302 H 0.71677 0.37391 0.74255 0.0
H2303 H 0.70957 0.35452 0.76523 0.0
H2304 H 0.68813 0.35866 0.74305 0.0
H2305 H 0.67556 0.3108 0.72972 0.0
H2306 H 0.69711 0.30654 0.75168 0.0
H2307 H 0.69552 0.29334 0.71973 0.0
H2308 H 0.76969 0.33335 0.68839 0.0
H2309 H 0.79409 0.32758 0.72411 0.0
H2310 H 0.73992 0.32779 0.76833 0.0
C2311 C 0.68491 0.33975 0.68801 0.0
C2312 C 0.6851 0.34275 0.66299 0.0
C2313 C 0.70554 0.34365 0.65284 0.0
C2314 C 0.72481 0.34088 0.66652 0.0
C2315 C 0.72394 0.33744 0.69075 0.0
C2316 C 0.70466 0.3373 0.70162 0.0
C2317 C 0.70865 0.33379 0.72828 0.0
C2318 C 0.7056 0.35658 0.74581 0.0
C2319 C 0.69329 0.30968 0.7326 0.0
C2320 C 0.73296 0.33181 0.73044 0.0
C2321 C 0.74138 0.3337 0.70846 0.0
C2322 C 0.76328 0.33188 0.70573 0.0
C2323 C 0.77701 0.32837 0.72604 0.0
C2324 C 0.76897 0.32699 0.74896 0.0
C2325 C 0.74659 0.32874 0.75103 0.0
H2326 H 0.05526 0.36889 0.93372 0.0
H2327 H 1.01185 0.32978 0.9794 0.0
H2328 H 1.01259 0.36997 1.00583 0.0
H2329 H 0.08982 0.41268 0.98377 0.0
H2330 H 0.09394 0.43822 0.96688 0.0
H2331 H 0.08906 0.40662 0.95085 0.0
H2332 H 0.05554 0.41344 0.92331 0.0
H2333 H 0.06043 0.4451 0.93915 0.0
H2334 H 0.0335 0.4244 0.93741 0.0
H2335 H 1.01705 0.41489 0.02634 0.0
H2336 H 0.02681 0.46052 0.04089 0.0
H2337 H 0.07011 0.46986 0.98416 0.0
C2338 C 0.04573 0.36884 0.94916 0.0
C2339 C 0.03325 0.34627 0.95438 0.0
C2340 C 1.02141 0.34688 0.97504 0.0
C2341 C 1.02174 0.36961 0.99012 0.0
C2342 C 0.03436 0.39154 0.9846 0.0
C2343 C 0.04634 0.39131 0.96475 0.0
C2344 C 0.05933 0.41733 0.96343 0.0
C2345 C 0.08453 0.41879 0.96642 0.0
C2346 C 0.05174 0.42555 0.9394 0.0
C2347 C 0.05262 0.4323 0.98547 0.0
C2348 C 0.03802 0.41712 0.99729 0.0
C2349 C 0.02868 0.42688 0.0174 0.0
C2350 C 0.0343 0.4528 0.02554 0.0
C2351 C 0.04946 0.46865 1.01391 0.0
C2352 C 0.05886 0.45814 0.99376 0.0
H2353 H 0.06855 0.82114 0.19257 0.0
H2354 H 0.04202 0.83309 0.12127 0.0
H2355 H 1.00523 0.83106 0.13533 0.0
H2356 H 1.01905 0.77697 0.20205 0.0
H2357 H 1.02148 0.78828 0.23455 0.0
H2358 H 0.04606 0.79092 0.21916 0.0
H2359 H 0.05659 0.83849 0.23515 0.0
H2360 H 0.03198 0.83599 0.25049 0.0
H2361 H 0.03686 0.8571 0.22883 0.0
H2362 H 0.97144 0.82888 0.15698 0.0
H2363 H 0.94218 0.8244 0.18421 0.0
H2364 H 0.98917 0.8117 0.24139 0.0
C2365 C 0.05498 0.8233 0.17994 0.0
C2366 C 0.05831 0.82733 0.15576 0.0
C2367 C 0.04002 0.82996 0.13983 0.0
C2368 C 1.01899 0.8289 0.14767 0.0
C2369 C 1.01627 0.82503 0.17153 0.0
C2370 C 0.03366 0.82207 0.18744 0.0
C2371 C 0.0259 0.81767 0.21201 0.0
C2372 C 0.02826 0.79193 0.21724 0.0
C2373 C 0.03859 0.83856 0.23285 0.0
C2374 C 1.00153 0.81873 0.20737 0.0
C2375 C 0.99644 0.82312 0.18391 0.0
C2376 C 0.97517 0.82517 0.17532 0.0
C2377 C 0.95856 0.8224 0.19095 0.0
C2378 C 0.96305 0.81735 0.21501 0.0
C2379 C 0.98503 0.8157 0.22326 0.0
H2380 H 0.51009 0.30413 0.10254 0.0
H2381 H 0.51908 0.35107 0.17408 0.0
H2382 H 0.52933 0.38853 0.15469 0.0
H2383 H 0.55536 0.3394 0.07842 0.0
H2384 H 0.54088 0.33447 0.0478 0.0
H2385 H 0.53395 0.31155 0.06729 0.0
H2386 H 0.49264 0.31462 0.06165 0.0
H2387 H 0.49942 0.33743 0.04201 0.0
H2388 H 0.48585 0.34462 0.06868 0.0
H2389 H 0.5402 0.42042 0.12752 0.0
H2390 H 0.54874 0.4448 0.09461 0.0
H2391 H 0.53061 0.37665 0.04067 0.0
C2392 C 0.51414 0.32229 0.11416 0.0
C2393 C 0.51387 0.3248 0.1398 0.0
C2394 C 0.51915 0.34883 0.15437 0.0
C2395 C 0.52504 0.37014 0.14354 0.0
C2396 C 0.52535 0.36696 0.11817 0.0
C2397 C 0.51984 0.34365 0.10366 0.0
C2398 C 0.52132 0.34522 0.07686 0.0
C2399 C 0.53893 0.33187 0.06703 0.0
C2400 C 0.49845 0.33487 0.06139 0.0
C2401 C 0.52865 0.37312 0.07851 0.0
C2402 C 0.531 0.38532 0.10249 0.0
C2403 C 0.53813 0.41109 0.10864 0.0
C2404 C 0.54278 0.42478 0.08975 0.0
C2405 C 0.54005 0.41271 0.06492 0.0
C2406 C 0.53299 0.38648 0.05939 0.0
H2407 H 0.07507 0.35871 0.36437 0.0
H2408 H 0.06758 0.40508 0.43186 0.0
H2409 H 0.03012 0.40677 0.41427 0.0
H2410 H 0.04652 0.38785 0.32258 0.0
H2411 H 0.03295 0.35925 0.30229 0.0
H2412 H 0.05935 0.36151 0.32004 0.0
H2413 H 0.04227 0.32286 0.33866 0.0
H2414 H 1.01583 0.32041 0.32087 0.0
H2415 H 1.01767 0.3227 0.35376 0.0
H2416 H 0.99444 0.40531 0.38902 0.0
H2417 H 0.96112 0.39797 0.3586 0.0
H2418 H 0.99018 0.35045 0.30812 0.0
C2419 C 0.06555 0.36918 0.37549 0.0
C2420 C 0.07449 0.38209 0.39942 0.0
C2421 C 0.0613 0.39529 0.41341 0.0
C2422 C 0.03995 0.39634 0.40359 0.0
C2423 C 0.03179 0.3837 0.3799 0.0
C2424 C 0.04399 0.37008 0.36612 0.0
C2425 C 0.03102 0.35782 0.34127 0.0
C2426 C 0.04319 0.36717 0.32031 0.0
C2427 C 0.02642 0.32925 0.33849 0.0
C2428 C 1.00976 0.36703 0.34315 0.0
C2429 C 1.01068 0.38206 0.36557 0.0
C2430 C 0.99344 0.39346 0.37146 0.0
C2431 C 0.97467 0.38931 0.35403 0.0
C2432 C 0.97318 0.37375 0.33105 0.0
C2433 C 0.99091 0.36234 0.32561 0.0
H2434 H 0.99219 0.68799 0.58122 0.0
H2435 H 0.02568 0.69872 0.65529 0.0
H2436 H 0.03898 0.6602 0.64473 0.0
H2437 H 0.97966 0.61527 0.57048 0.0
H2438 H 0.98438 0.61493 0.53888 0.0
H2439 H 0.97205 0.6386 0.55421 0.0
H2440 H 1.00286 0.67261 0.54257 0.0
H2441 H 1.01561 0.6493 0.52782 0.0
H2442 H 0.03167 0.67331 0.55201 0.0
H2443 H 0.05773 0.6295 0.6231 0.0
H2444 H 0.07553 0.60472 0.59356 0.0
H2445 H 0.028 0.61154 0.53416 0.0
C2446 C 1.00137 0.68147 0.59551 0.0
C2447 C 1.00792 0.69621 0.61901 0.0
C2448 C 1.02023 0.68748 0.63725 0.0
C2449 C 0.02793 0.66565 0.63138 0.0
C2450 C 1.02257 0.65248 0.60743 0.0
C2451 C 1.00887 0.65957 0.58999 0.0
C2452 C 1.00789 0.64423 0.56486 0.0
C2453 C 0.98461 0.62725 0.55663 0.0
C2454 C 1.01494 0.66087 0.54573 0.0
C2455 C 0.02479 0.62916 0.5704 0.0
C2456 C 0.03281 0.63379 0.59512 0.0
C2457 C 0.05094 0.62491 0.6039 0.0
C2458 C 0.06104 0.61097 0.58701 0.0
C2459 C 0.05282 0.60588 0.56175 0.0
C2460 C 0.03427 0.61474 0.5535 0.0
H2461 H 0.67683 0.82394 0.84357 0.0
H2462 H 0.70985 0.89661 0.88517 0.0
H2463 H 0.74047 0.89855 0.85946 0.0
H2464 H 0.72676 0.80224 0.8405 0.0
H2465 H 0.71816 0.78382 0.81029 0.0
H2466 H 0.6976 0.7896 0.82995 0.0
H2467 H 0.6782 0.80789 0.79585 0.0
H2468 H 0.69901 0.80255 0.77627 0.0
H2469 H 0.69393 0.83336 0.78355 0.0
H2470 H 0.76765 0.89246 0.83036 0.0
H2471 H 0.7934 0.87553 0.80498 0.0
H2472 H 0.74426 0.80543 0.78405 0.0
C2473 C 0.69047 0.84027 0.84701 0.0
C2474 C 0.69111 0.8602 0.86609 0.0
C2475 C 0.70928 0.88113 0.8706 0.0
C2476 C 0.72655 0.88254 0.85594 0.0
C2477 C 0.72549 0.86267 0.83713 0.0
C2478 C 0.70822 0.84166 0.83297 0.0
C2479 C 0.71255 0.82171 0.81358 0.0
C2480 C 0.71385 0.79795 0.82422 0.0
C2481 C 0.69487 0.81606 0.79097 0.0
C2482 C 0.73504 0.83471 0.80778 0.0
C2483 C 0.74189 0.85856 0.8211 0.0
C2484 C 0.76249 0.87385 0.81971 0.0
C2485 C 0.77695 0.86409 0.80514 0.0
C2486 C 0.77085 0.83913 0.79261 0.0
C2487 C 0.74933 0.82462 0.79332 0.0
H2488 H 0.50443 0.54189 0.69447 0.0
H2489 H 0.46791 0.59929 0.68688 0.0
H2490 H 0.4828 0.6041 0.64723 0.0
H2491 H 0.55363 0.56933 0.66851 0.0
H2492 H 0.55764 0.54009 0.65302 0.0
H2493 H 0.54398 0.54105 0.68037 0.0
H2494 H 0.51004 0.50817 0.6569 0.0
H2495 H 0.52361 0.50711 0.62948 0.0
H2496 H 0.49635 0.51381 0.62889 0.0
H2497 H 0.50472 0.604 0.60701 0.0
H2498 H 0.52761 0.59802 0.57328 0.0
H2499 H 0.54903 0.53879 0.60442 0.0
C2500 C 0.49927 0.55551 0.68459 0.0
C2501 C 0.48445 0.57019 0.69494 0.0
C2502 C 0.47879 0.58754 0.68036 0.0
C2503 C 0.48742 0.59044 0.65745 0.0
C2504 C 0.50196 0.57582 0.64816 0.0
C2505 C 0.50762 0.55844 0.6614 0.0
C2506 C 0.52341 0.54478 0.64747 0.0
C2507 C 0.54601 0.54906 0.66329 0.0
C2508 C 0.51272 0.5168 0.64026 0.0
C2509 C 0.52605 0.55707 0.62432 0.0
C2510 C 0.5136 0.57512 0.62522 0.0
C2511 C 0.51413 0.58964 0.60648 0.0
C2512 C 0.52738 0.58601 0.58698 0.0
C2513 C 0.54029 0.56753 0.58487 0.0
C2514 C 0.53924 0.55275 0.60431 0.0
H2515 H 0.81284 0.15935 0.9467 0.0
H2516 H 0.75237 0.15486 0.98057 0.0
H2517 H 0.73713 0.1762 0.94945 0.0
H2518 H 0.82105 0.21584 0.9423 0.0
H2519 H 0.83148 0.216 0.91302 0.0
H2520 H 0.83389 0.19135 0.92969 0.0
H2521 H 0.81258 0.15828 0.89285 0.0
H2522 H 0.8106 0.1829 0.87554 0.0
H2523 H 0.78579 0.1608 0.87916 0.0
H2524 H 0.73423 0.20925 0.92559 0.0
H2525 H 0.74286 0.24857 0.90914 0.0
H2526 H 0.8053 0.23253 0.89013 0.0
C2527 C 0.79577 0.1613 0.94625 0.0
C2528 C 0.78349 0.1552 0.96543 0.0
C2529 C 0.76173 0.15909 0.96558 0.0
C2530 C 0.75297 0.17115 0.94792 0.0
C2531 C 0.76625 0.17907 0.93031 0.0
C2532 C 0.78704 0.1737 0.9289 0.0
C2533 C 0.79996 0.18867 0.91207 0.0
C2534 C 0.82291 0.20386 0.92508 0.0
C2535 C 0.80236 0.17164 0.8885 0.0
C2536 C 0.78441 0.20533 0.90671 0.0
C2537 C 0.76467 0.19889 0.9165 0.0
C2538 C 0.74923 0.21393 0.91704 0.0
C2539 C 0.75432 0.23631 0.90783 0.0
C2540 C 0.77482 0.24354 0.89862 0.0
C2541 C 0.78956 0.22739 0.89724 0.0
H2542 H 0.13212 0.50503 0.18835 0.0
H2543 H 0.19372 0.5446 0.1673 0.0
H2544 H 0.17353 0.54906 0.12861 0.0
H2545 H 0.10683 0.47362 0.12078 0.0
H2546 H 0.07941 0.47577 0.12797 0.0
H2547 H 0.09946 0.47033 0.15102 0.0
H2548 H 0.09379 0.5087 0.1801 0.0
H2549 H 0.07454 0.51501 0.15696 0.0
H2550 H 0.09889 0.53874 0.17049 0.0
H2551 H 0.14596 0.56309 0.1028 0.0
H2552 H 0.11337 0.57152 0.07963 0.0
H2553 H 0.06962 0.51594 0.11072 0.0
C2554 C 0.14146 0.51326 0.17486 0.0
C2555 C 0.16437 0.5245 0.18067 0.0
C2556 C 0.1762 0.5356 0.16299 0.0
C2557 C 0.16484 0.53842 0.14106 0.0
C2558 C 0.14192 0.52902 0.13676 0.0
C2559 C 0.13047 0.51536 0.15238 0.0
C2560 C 0.10562 0.50868 0.14397 0.0
C2561 C 0.09734 0.48042 0.13542 0.0
C2562 C 0.09246 0.51837 0.16408 0.0
C2563 C 0.10486 0.52258 0.12256 0.0
C2564 C 0.126 0.53449 0.11904 0.0
C2565 C 0.12943 0.55246 0.10398 0.0
C2566 C 0.11083 0.55721 0.09102 0.0
C2567 C 0.08925 0.54301 0.09205 0.0
C2568 C 0.08612 0.52599 0.10857 0.0
H2569 H 0.82299 0.90113 0.45765 0.0
H2570 H 0.86644 0.86085 0.49217 0.0
H2571 H 0.86837 0.83671 0.45165 0.0
H2572 H 0.79156 0.84773 0.41417 0.0
H2573 H 0.78818 0.86503 0.38961 0.0
H2574 H 0.79108 0.88027 0.42109 0.0
H2575 H 0.8246 0.91361 0.41348 0.0
H2576 H 0.82172 0.89858 0.38194 0.0
H2577 H 0.84794 0.90388 0.40113 0.0
H2578 H 0.86647 0.81768 0.40735 0.0
H2579 H 0.8592 0.80329 0.3625 0.0
H2580 H 0.8144 0.85304 0.35637 0.0
C2581 C 0.8331 0.88742 0.45658 0.0
C2582 C 0.84481 0.88307 0.47805 0.0
C2583 C 0.85744 0.86458 0.47599 0.0
C2584 C 0.85863 0.85077 0.45303 0.0
C2585 C 0.84676 0.8553 0.43225 0.0
C2586 C 0.83405 0.873 0.43377 0.0
C2587 C 0.82214 0.87332 0.40865 0.0
C2588 C 0.79673 0.86616 0.40838 0.0
C2589 C 0.82955 0.89887 0.40084 0.0
C2590 C 0.83034 0.85325 0.39277 0.0
C2591 C 0.84468 0.84329 0.40678 0.0
C2592 C 0.85511 0.82519 0.39623 0.0
C2593 C 0.85089 0.81714 0.37072 0.0
C2594 C 0.83608 0.82682 0.35593 0.0
C2595 C 0.82552 0.84498 0.36723 0.0
H2596 H 0.49957 0.55142 0.82326 0.0
H2597 H 0.45766 0.59959 0.85125 0.0
H2598 H 0.47449 0.60045 0.89353 0.0
H2599 H 0.49543 0.51477 0.87394 0.0
H2600 H 0.52363 0.51079 0.8752 0.0
H2601 H 0.50929 0.51461 0.84674 0.0
H2602 H 0.54108 0.55192 0.84382 0.0
H2603 H 0.55548 0.54824 0.8723 0.0
H2604 H 0.54902 0.57777 0.86899 0.0
H2605 H 0.49759 0.598 0.93439 0.0
H2606 H 0.5207 0.58885 0.96888 0.0
H2607 H 0.54643 0.53839 0.91788 0.0
C2608 C 0.49394 0.56228 0.83823 0.0
C2609 C 0.47698 0.57579 0.83298 0.0
C2610 C 0.47034 0.58914 0.85387 0.0
C2611 C 0.48 0.58979 0.87832 0.0
C2612 C 0.49645 0.57649 0.8828 0.0
C2613 C 0.50314 0.56257 0.86331 0.0
C2614 C 0.52041 0.54898 0.87373 0.0
C2615 C 0.51167 0.5206 0.86699 0.0
C2616 C 0.54283 0.55721 0.86413 0.0
C2617 C 0.52254 0.55757 0.90189 0.0
C2618 C 0.50869 0.57379 0.90649 0.0
C2619 C 0.5082 0.58508 0.93071 0.0
C2620 C 0.52169 0.57973 0.95051 0.0
C2621 C 0.53582 0.56265 0.94712 0.0
C2622 C 0.53596 0.5514 0.92192 0.0
H2623 H 0.82915 0.24873 0.08292 0.0
H2624 H 0.82985 0.17628 0.10281 0.0
H2625 H 0.83377 0.19473 0.14654 0.0
H2626 H 0.86924 0.28603 0.13777 0.0
H2627 H 0.85444 0.31075 0.1398 0.0
H2628 H 0.85539 0.29265 0.11034 0.0
H2629 H 0.81229 0.28223 0.10288 0.0
H2630 H 0.81113 0.29958 0.13258 0.0
H2631 H 0.79664 0.26729 0.1246 0.0
H2632 H 0.82983 0.21849 0.18655 0.0
H2633 H 0.82657 0.24854 0.22236 0.0
H2634 H 0.83078 0.3067 0.17756 0.0
C2635 C 0.8309 0.23693 0.09651 0.0
C2636 C 0.8291 0.21105 0.08948 0.0
C2637 C 0.83135 0.19617 0.10775 0.0
C2638 C 0.83342 0.20644 0.13265 0.0
C2639 C 0.83374 0.23168 0.13888 0.0
C2640 C 0.83329 0.24696 0.12146 0.0
C2641 C 0.83287 0.27323 0.13309 0.0
C2642 C 0.85426 0.29176 0.13007 0.0
C2643 C 0.81199 0.28102 0.12266 0.0
C2644 C 0.83204 0.26998 0.1596 0.0
C2645 C 0.83249 0.24582 0.16244 0.0
C2646 C 0.83012 0.23765 0.18474 0.0
C2647 C 0.82807 0.25485 0.20492 0.0
C2648 C 0.82874 0.28005 0.20278 0.0
C2649 C 0.83045 0.28762 0.17974 0.0
H2650 H 0.17567 0.56992 0.29524 0.0
H2651 H 0.24264 0.56802 0.324 0.0
H2652 H 0.23453 0.5816 0.36622 0.0
H2653 H 0.17045 0.62435 0.3398 0.0
H2654 H 0.14143 0.61099 0.34067 0.0
H2655 H 0.15385 0.60453 0.31299 0.0
H2656 H 0.14087 0.55705 0.31284 0.0
H2657 H 0.12848 0.56333 0.34042 0.0
H2658 H 0.14881 0.54443 0.33954 0.0
H2659 H 0.21665 0.58941 0.40555 0.0
H2660 H 0.19138 0.5921 0.43761 0.0
H2661 H 0.13713 0.58954 0.3814 0.0
C2662 C 0.18882 0.57283 0.31031 0.0
C2663 C 0.20973 0.5679 0.30648 0.0
C2664 C 0.2265 0.57184 0.32667 0.0
C2665 C 0.22205 0.57957 0.35063 0.0
C2666 C 0.20094 0.5837 0.35382 0.0
C2667 C 0.18475 0.58076 0.33406 0.0
C2668 C 0.16291 0.5845 0.34209 0.0
C2669 C 0.15681 0.60746 0.33337 0.0
C2670 C 0.14419 0.56093 0.33321 0.0
C2671 C 0.16895 0.58896 0.36955 0.0
C2672 C 0.19097 0.58872 0.37614 0.0
C2673 C 0.19952 0.59017 0.4006 0.0
C2674 C 0.18507 0.59155 0.41864 0.0
C2675 C 0.16241 0.59145 0.41199 0.0
C2676 C 0.15452 0.59055 0.38718 0.0
H2677 H 0.83416 0.84043 0.59495 0.0
H2678 H 0.85229 0.91922 0.62547 0.0
H2679 H 0.84724 0.90909 0.66704 0.0
H2680 H 0.79065 0.82481 0.63287 0.0
H2681 H 0.79619 0.79469 0.63531 0.0
H2682 H 0.80216 0.8084 0.60854 0.0
H2683 H 0.843 0.80403 0.61577 0.0
H2684 H 0.83719 0.79048 0.64268 0.0
H2685 H 0.85947 0.81768 0.64494 0.0
H2686 H 0.84293 0.88904 0.70608 0.0
H2687 H 0.83244 0.8624 0.73752 0.0
H2688 H 0.81405 0.79749 0.67999 0.0
C2689 C 0.83708 0.85558 0.61038 0.0
C2690 C 0.84385 0.88064 0.60699 0.0
C2691 C 0.84711 0.89991 0.62762 0.0
C2692 C 0.84443 0.89429 0.65131 0.0
C2693 C 0.83803 0.86931 0.65404 0.0
C2694 C 0.83393 0.85034 0.63396 0.0
C2695 C 0.82601 0.82513 0.64138 0.0
C2696 C 0.80235 0.81252 0.62878 0.0
C2697 C 0.8424 0.80835 0.63586 0.0
C2698 C 0.82629 0.83275 0.66879 0.0
C2699 C 0.83374 0.85821 0.67594 0.0
C2700 C 0.83646 0.86921 0.70067 0.0
C2701 C 0.83071 0.85394 0.71838 0.0
C2702 C 0.82219 0.82796 0.71117 0.0
C2703 C 0.82018 0.81737 0.68605 0.0
H2704 H 0.76319 0.47916 0.50475 0.0
H2705 H 0.82341 0.53543 0.53407 0.0
H2706 H 0.80075 0.5645 0.54933 0.0
H2707 H 0.73173 0.52093 0.48418 0.0
H2708 H 0.70581 0.50453 0.49229 0.0
H2709 H 0.72678 0.48785 0.4842 0.0
H2710 H 0.7265 0.4716 0.52566 0.0
H2711 H 0.7055 0.48822 0.53385 0.0
H2712 H 0.73121 0.49358 0.55395 0.0
H2713 H 0.7716 0.5875 0.56146 0.0
H2714 H 0.73761 0.6031 0.56829 0.0
H2715 H 0.69686 0.53195 0.53069 0.0
C2716 C 0.77159 0.49757 0.51443 0.0
C2717 C 0.79501 0.50505 0.51825 0.0
C2718 C 0.80544 0.52932 0.53091 0.0
C2719 C 0.79274 0.54597 0.5397 0.0
C2720 C 0.76968 0.53804 0.53562 0.0
C2721 C 0.75918 0.51446 0.52323 0.0
C2722 C 0.73415 0.51075 0.5209 0.0
C2723 C 0.72403 0.50573 0.49378 0.0
C2724 C 0.72374 0.4898 0.5344 0.0
C2725 C 0.73227 0.53597 0.53376 0.0
C2726 C 0.75292 0.55142 0.54227 0.0
C2727 C 0.75531 0.57561 0.55486 0.0
C2728 C 0.73601 0.58428 0.55871 0.0
C2729 C 0.71476 0.56879 0.54978 0.0
C2730 C 0.71295 0.54433 0.53732 0.0
H2731 H 0.23264 0.1424 0.50023 0.0
H2732 H 0.20321 0.20102 0.47746 0.0
H2733 H 0.16576 0.17517 0.47796 0.0
H2734 H 0.19043 0.08984 0.46537 0.0
H2735 H 0.19096 0.07105 0.48914 0.0
H2736 H 0.21559 0.09367 0.48601 0.0
H2737 H 0.2175 0.11419 0.5314 0.0
H2738 H 0.19282 0.09172 0.53464 0.0
H2739 H 0.1937 0.12458 0.54176 0.0
H2740 H 0.13147 0.14351 0.4815 0.0
H2741 H 0.10247 0.10835 0.48852 0.0
H2742 H 0.15335 0.06982 0.50958 0.0
C2743 C 0.21834 0.14968 0.49501 0.0
C2744 C 0.22104 0.17383 0.48866 0.0
C2745 C 0.20175 0.18267 0.48233 0.0
C2746 C 0.18033 0.16808 0.48255 0.0
C2747 C 0.1783 0.14458 0.48914 0.0
C2748 C 0.19674 0.13537 0.49524 0.0
C2749 C 0.18979 0.10974 0.50236 0.0
C2750 C 0.19713 0.0899 0.48466 0.0
C2751 C 0.199 0.11009 0.52913 0.0
C2752 C 0.1646 0.10604 0.49935 0.0
C2753 C 0.1584 0.12641 0.49166 0.0
C2754 C 0.13614 0.12756 0.48769 0.0
C2755 C 0.11978 0.1075 0.49179 0.0
C2756 C 0.12561 0.08643 0.49979 0.0
C2757 C 0.14837 0.08568 0.50349 0.0
H2758 H 0.25877 0.9834 0.78501 0.0
H2759 H 0.19045 0.94126 0.76741 0.0
H2760 H 0.20363 0.90214 0.76222 0.0
H2761 H 0.28404 0.94189 0.74346 0.0
H2762 H 0.30864 0.94437 0.76453 0.0
H2763 H 0.29435 0.96954 0.7663 0.0
H2764 H 0.29058 0.96727 0.81185 0.0
H2765 H 0.30487 0.9421 0.81019 0.0
H2766 H 0.27771 0.93806 0.82033 0.0
H2767 H 0.22472 0.8652 0.7575 0.0
H2768 H 0.24997 0.83638 0.75665 0.0
H2769 H 0.30629 0.8992 0.77983 0.0
C2770 C 0.24644 0.96601 0.77991 0.0
C2771 C 0.22295 0.96656 0.77643 0.0
C2772 C 0.20821 0.94252 0.77019 0.0
C2773 C 0.21572 0.91973 0.76714 0.0
C2774 C 0.23857 0.91988 0.77064 0.0
C2775 C 0.2538 0.94252 0.77721 0.0
C2776 C 0.27747 0.93701 0.78072 0.0
C2777 C 0.292 0.94893 0.76269 0.0
C2778 C 0.28831 0.94671 0.80736 0.0
C2779 C 0.27328 0.90804 0.77488 0.0
C2780 C 0.25057 0.8987 0.76893 0.0
C2781 C 0.24243 0.87274 0.76234 0.0
C2782 C 0.25725 0.85614 0.76185 0.0
C2783 C 0.28084 0.86436 0.76812 0.0
C2784 C 0.28865 0.89131 0.77486 0.0
H2785 H 0.40488 0.93213 1.01465 0.0
H2786 H 0.38363 0.967 0.9546 0.0
H2787 H 0.42231 0.99125 0.95597 0.0
H2788 H 0.44013 0.98701 0.04847 0.0
H2789 H 0.46089 0.97193 0.06027 0.0
H2790 H 0.43235 0.95494 0.05258 0.0
H2791 H 0.44445 0.92088 0.02322 0.0
H2792 H 0.47308 0.93763 0.03104 0.0
H2793 H 0.46084 0.92971 0.99936 0.0
H2794 H 0.46275 1.0121 0.96456 0.0
H2795 H 0.502 0.03046 0.98124 0.0
H2796 H 0.4961 0.98487 0.03842 0.0
C2797 C 0.40857 0.94436 1.00136 0.0
C2798 C 0.39159 0.94736 0.98407 0.0
C2799 C 0.39663 0.96427 0.96764 0.0
C2800 C 0.41847 0.97806 0.96833 0.0
C2801 C 0.43481 0.975 0.98589 0.0
C2802 C 0.4301 0.95874 1.00225 0.0
C2803 C 0.4502 0.96057 0.02074 0.0
C2804 C 0.44561 0.96912 0.04707 0.0
C2805 C 0.45758 0.93572 0.01844 0.0
C2806 C 0.46697 0.98047 1.01225 0.0
C2807 C 0.45782 0.98823 0.99189 0.0
C2808 C 0.4701 1.00619 0.98047 0.0
C2809 C 0.49236 1.01645 0.99006 0.0
C2810 C 0.50197 1.00904 1.0111 0.0
C2811 C 0.48907 0.99094 0.02242 0.0
H2812 H 0.88626 0.62611 0.83301 0.0
H2813 H 0.85408 0.55145 0.79516 0.0
H2814 H 0.81953 0.56533 0.78578 0.0
H2815 H 0.83642 0.64116 0.85857 0.0
H2816 H 0.84367 0.67306 0.85383 0.0
H2817 H 0.86526 0.65676 0.86009 0.0
H2818 H 0.88137 0.66644 0.82013 0.0
H2819 H 0.86003 0.68297 0.81396 0.0
H2820 H 0.86339 0.65771 0.79133 0.0
H2821 H 0.7903 0.58812 0.77595 0.0
H2822 H 0.76859 0.61887 0.76625 0.0
H2823 H 0.8189 0.67803 0.81192 0.0
C2824 C 0.87183 0.61262 0.82309 0.0
C2825 C 0.87282 0.58774 0.81485 0.0
C2826 C 0.85368 0.57064 0.8017 0.0
C2827 C 0.83392 0.57828 0.7964 0.0
C2828 C 0.8335 0.60299 0.80461 0.0
C2829 C 0.8519 0.6199 0.81776 0.0
C2830 C 0.84757 0.6458 0.82278 0.0
C2831 C 0.84827 0.65471 0.85047 0.0
C2832 C 0.86406 0.6643 0.81136 0.0
C2833 C 0.82416 0.6409 0.80969 0.0
C2834 C 0.81624 0.61605 0.79952 0.0
C2835 C 0.79601 0.60752 0.78434 0.0
C2836 C 0.7838 0.62501 0.77893 0.0
C2837 C 0.79189 0.65055 0.78887 0.0
C2838 C 0.81199 0.65843 0.8049 0.0
H2839 H 0.83805 0.64095 1.0142 0.0
H2840 H 0.87491 0.71454 1.00735 0.0
H2841 H 0.91022 0.701 1.01381 0.0
H2842 H 0.87734 0.62951 0.06134 0.0
H2843 H 0.8733 0.59692 0.04872 0.0
H2844 H 0.851 0.61266 0.04431 0.0
H2845 H 0.84826 0.5991 0.99722 0.0
H2846 H 0.8706 0.58339 1.00148 0.0
H2847 H 0.87271 0.60679 0.98203 0.0
H2848 H 0.94167 0.67913 0.02048 0.0
H2849 H 0.96661 0.65056 0.02616 0.0
H2850 H 0.90928 0.59113 0.02849 0.0
C2851 C 0.85355 0.65428 1.01421 0.0
C2852 C 0.85368 0.67887 1.01033 0.0
C2853 C 0.87435 0.69563 1.0103 0.0
C2854 C 0.89452 0.68811 1.01397 0.0
C2855 C 0.8938 0.6637 0.01759 0.0
C2856 C 0.87385 0.64703 0.01772 0.0
C2857 C 0.87765 0.62171 0.02148 0.0
C2858 C 0.86933 0.6148 0.04539 0.0
C2859 C 0.86665 0.60156 0.99923 0.0
C2860 C 0.90284 0.62671 0.02336 0.0
C2861 C 0.91186 0.65108 0.02119 0.0
C2862 C 0.93478 0.66003 0.0223 0.0
C2863 C 0.94884 0.64368 0.02567 0.0
C2864 C 0.94 0.61854 0.02782 0.0
C2865 C 0.91663 0.61011 0.02666 0.0
H2866 H 0.25318 0.10814 0.79069 0.0
H2867 H 0.19064 0.13201 0.79074 0.0
H2868 H 0.20992 0.17426 0.78886 0.0
H2869 H 0.28706 0.16648 0.8288 0.0
H2870 H 0.31094 0.16755 0.81234 0.0
H2871 H 0.29269 0.13799 0.81346 0.0
H2872 H 0.28685 0.12799 0.76609 0.0
H2873 H 0.30508 0.15754 0.76486 0.0
H2874 H 0.27719 0.14959 0.7489 0.0
H2875 H 0.23536 0.21596 0.7865 0.0
H2876 H 0.26553 0.25256 0.78503 0.0
H2877 H 0.31342 0.20604 0.78715 0.0
C2878 C 0.24346 0.12215 0.79033 0.0
C2879 C 0.21974 0.11542 0.791 0.0
C2880 C 0.20847 0.13535 0.79045 0.0
C2881 C 0.21939 0.16003 0.7893 0.0
C2882 C 0.2423 0.16595 0.78873 0.0
C2883 C 0.25439 0.14769 0.78933 0.0
C2884 C 0.27912 0.15998 0.78879 0.0
C2885 C 0.2933 0.15787 0.81224 0.0
C2886 C 0.28757 0.14805 0.76579 0.0
C2887 C 0.27877 0.18754 0.78775 0.0
C2888 C 0.25718 0.19037 0.78763 0.0
C2889 C 0.25233 0.21379 0.78657 0.0
C2890 C 0.2697 0.23473 0.7856 0.0
C2891 C 0.29221 0.23288 0.78578 0.0
C2892 C 0.29656 0.20859 0.78697 0.0
H2893 H 0.44322 0.9849 0.31897 0.0
H2894 H 0.43178 1.00339 0.39447 0.0
H2895 H 0.40488 0.96287 0.39058 0.0
H2896 H 0.39 0.96348 0.29658 0.0
H2897 H 0.39273 0.93836 0.27339 0.0
H2898 H 0.4157 0.96475 0.28339 0.0
H2899 H 0.44152 0.93621 0.29525 0.0
H2900 H 0.41891 0.90949 0.28424 0.0
H2901 H 0.43281 0.91406 0.31509 0.0
H2902 H 0.37462 0.92464 0.37623 0.0
H2903 H 0.34578 0.88877 0.35379 0.0
H2904 H 0.37541 0.89693 0.28662 0.0
C2905 C 0.43615 0.97953 0.33508 0.0
C2906 C 0.4401 0.99651 0.35732 0.0
C2907 C 0.42953 0.98998 0.37767 0.0
C2908 C 0.41407 0.96718 0.37548 0.0
C2909 C 0.40938 0.95145 0.35275 0.0
C2910 C 0.42042 0.9571 0.33299 0.0
C2911 C 0.41022 0.93889 0.30971 0.0
C2912 C 0.40166 0.95218 0.28961 0.0
C2913 C 0.42685 0.92376 0.30054 0.0
C2914 C 0.39119 0.92274 0.31924 0.0
C2915 C 0.39117 0.93006 0.34414 0.0
C2916 C 0.37469 0.91847 0.35682 0.0
C2917 C 0.35826 0.8983 0.34387 0.0
C2918 C 0.35829 0.89018 0.31846 0.0
C2919 C 0.37481 0.90286 0.30599 0.0
H2920 H 0.5918 0.40536 0.62125 0.0
H2921 H 0.64801 0.3883 0.58671 0.0
H2922 H 0.64684 0.42181 0.56197 0.0
H2923 H 0.56233 0.41532 0.56577 0.0
H2924 H 0.55089 0.43981 0.58099 0.0
H2925 H 0.55725 0.41597 0.59732 0.0
H2926 H 0.58241 0.44979 0.63119 0.0
H2927 H 0.57603 0.47372 0.61501 0.0
H2928 H 0.6046 0.47239 0.62281 0.0
H2929 H 0.64033 0.459 0.54219 0.0
H2930 H 0.62677 0.49305 0.52598 0.0
H2931 H 0.57181 0.48258 0.56931 0.0
C2932 C 0.60408 0.40897 0.60874 0.0
C2933 C 0.62041 0.39457 0.60635 0.0
C2934 C 0.63563 0.3993 0.58913 0.0
C2935 C 0.63504 0.41831 0.57499 0.0
C2936 C 0.6187 0.43212 0.57769 0.0
C2937 C 0.60326 0.42739 0.59389 0.0
C2938 C 0.58648 0.44375 0.5921 0.0
C2939 C 0.56284 0.42775 0.58353 0.0
C2940 C 0.58745 0.46093 0.61674 0.0
C2941 C 0.59499 0.45863 0.57259 0.0
C2942 C 0.61383 0.45191 0.56481 0.0
C2943 C 0.6254 0.46405 0.54792 0.0
C2944 C 0.61757 0.48341 0.53877 0.0
C2945 C 0.59798 0.49019 0.54591 0.0
C2946 C 0.58652 0.47744 0.563 0.0
H2947 H 0.4805 0.81042 0.37264 0.0
H2948 H 0.44691 0.7504 0.40686 0.0
H2949 H 0.41137 0.7495 0.38218 0.0
H2950 H 0.43671 0.8426 0.37304 0.0
H2951 H 0.4403 0.85283 0.34403 0.0
H2952 H 0.46365 0.8471 0.36228 0.0
H2953 H 0.47021 0.81594 0.32571 0.0
H2954 H 0.44701 0.82179 0.30725 0.0
H2955 H 0.44766 0.79037 0.31116 0.0
H2956 H 0.37862 0.75659 0.3551 0.0
H2957 H 0.35191 0.77104 0.32772 0.0
H2958 H 0.4061 0.82769 0.31239 0.0
C2959 C 0.46578 0.79662 0.37434 0.0
C2960 C 0.46662 0.78005 0.39131 0.0
C2961 C 0.44676 0.76296 0.39371 0.0
C2962 C 0.42645 0.76238 0.37981 0.0
C2963 C 0.426 0.77927 0.36365 0.0
C2964 C 0.44515 0.79608 0.36081 0.0
C2965 C 0.43976 0.81327 0.34335 0.0
C2966 C 0.44544 0.84056 0.35646 0.0
C2967 C 0.45188 0.81014 0.32051 0.0
C2968 C 0.4147 0.80351 0.33687 0.0
C2969 C 0.40707 0.78382 0.34868 0.0
C2970 C 0.38447 0.77197 0.34571 0.0
C2971 C 0.36935 0.78034 0.3302 0.0
C2972 C 0.37677 0.8005 0.31789 0.0
C2973 C 0.39981 0.81218 0.32145 0.0
H2974 H 0.1341 0.74762 0.07851 0.0
H2975 H 0.07783 0.75823 0.11681 0.0
H2976 H 0.06047 0.71333 0.1046 0.0
H2977 H 0.10398 0.70229 0.02778 0.0
H2978 H 0.12461 0.68378 0.02613 0.0
H2979 H 0.1329 0.71671 0.03795 0.0
H2980 H 0.15171 0.70776 0.07824 0.0
H2981 H 0.14365 0.67481 0.06645 0.0
H2982 H 0.13575 0.68694 0.09546 0.0
H2983 H 0.04798 0.66799 0.0859 0.0
H2984 H 0.0431 0.62422 0.06661 0.0
H2985 H 0.10849 0.64143 0.04247 0.0
C2986 C 0.11819 0.74048 0.08447 0.0
C2987 C 0.10731 0.7566 0.09861 0.0
C2988 C 0.08657 0.74637 0.10613 0.0
C2989 C 0.07651 0.72086 0.09915 0.0
C2990 C 0.08751 0.70563 0.08493 0.0
C2991 C 0.10808 0.71492 0.07804 0.0
C2992 C 0.11654 0.69429 0.06327 0.0
C2993 C 0.11969 0.6996 0.03724 0.0
C2994 C 0.1382 0.69074 0.07666 0.0
C2995 C 0.09739 0.67199 0.0627 0.0
C2996 C 0.08073 0.67911 0.07507 0.0
C2997 C 0.06101 0.66219 0.07638 0.0
C2998 C 0.05833 0.63731 0.06514 0.0
C2999 C 0.07535 0.6292 0.05291 0.0
C3000 C 0.09518 0.64693 0.05172 0.0
H3001 H 0.0763 0.285 0.85158 0.0
H3002 H 0.10277 0.27397 0.92321 0.0
H3003 H 0.13908 0.27353 0.90862 0.0
H3004 H 0.10778 0.24687 0.81498 0.0
H3005 H 0.11278 0.26786 0.79324 0.0
H3006 H 0.0881 0.26548 0.80848 0.0
H3007 H 0.09871 0.3131 0.82412 0.0
H3008 H 0.12341 0.3156 0.80897 0.0
H3009 H 0.12563 0.32706 0.84142 0.0
H3010 H 0.17288 0.27528 0.88717 0.0
H3011 H 0.20254 0.28041 0.8605 0.0
H3012 H 0.15595 0.29273 0.80271 0.0
C3013 C 0.08966 0.28207 0.864 0.0
C3014 C 0.08656 0.27932 0.88856 0.0
C3015 C 0.10465 0.27609 0.90436 0.0
C3016 C 0.12538 0.27575 0.89622 0.0
C3017 C 0.12806 0.27888 0.87215 0.0
C3018 C 0.11079 0.28205 0.85621 0.0
C3019 C 0.11875 0.28633 0.83165 0.0
C3020 C 0.10609 0.26539 0.81085 0.0
C3021 C 0.11649 0.31205 0.82623 0.0
C3022 C 0.14313 0.28521 0.83644 0.0
C3023 C 0.14799 0.28068 0.85988 0.0
C3024 C 0.16929 0.27896 0.86879 0.0
C3025 C 0.18615 0.28214 0.85348 0.0
C3026 C 0.18193 0.2873 0.82942 0.0
C3027 C 0.1599 0.28861 0.82084 0.0
H3028 H 0.5923 0.79952 0.94226 0.0
H3029 H 0.66029 0.8005 0.92882 0.0
H3030 H 0.65712 0.75937 0.94213 0.0
H3031 H 0.59315 0.77547 0.99511 0.0
H3032 H 0.56546 0.75582 0.98897 0.0
H3033 H 0.57198 0.78326 0.97513 0.0
H3034 H 0.55892 0.75665 0.93185 0.0
H3035 H 0.55203 0.72907 0.94559 0.0
H3036 H 0.57068 0.73028 0.92245 0.0
H3037 H 0.64856 0.72268 0.96427 0.0
H3038 H 0.6337 0.69019 0.98826 0.0
H3039 H 0.57028 0.71142 0.98379 0.0
C3040 C 0.60629 0.79068 0.9415 0.0
C3041 C 0.62654 0.80295 0.93462 0.0
C3042 C 0.6446 0.79112 0.93387 0.0
C3043 C 0.64294 0.76788 0.94145 0.0
C3044 C 0.62291 0.75662 0.94899 0.0
C3045 C 0.60471 0.76735 0.94842 0.0
C3046 C 0.58545 0.75217 0.95854 0.0
C3047 C 0.57863 0.76761 0.98075 0.0
C3048 C 0.5656 0.7414 0.9384 0.0
C3049 C 0.59601 0.73187 0.96611 0.0
C3050 C 0.61761 0.7347 0.96043 0.0
C3051 C 0.63146 0.7198 0.96808 0.0
C3052 C 0.62295 0.70149 0.98174 0.0
C3053 C 0.60076 0.69804 0.98729 0.0
C3054 C 0.58711 0.71328 0.97916 0.0
H3055 H 0.07322 0.77364 0.6861 0.0
H3056 H 0.08723 0.817 0.62813 0.0
H3057 H 0.1275 0.82336 0.64094 0.0
H3058 H 0.12173 0.80899 0.73198 0.0
H3059 H 0.12605 0.78092 0.74225 0.0
H3060 H 0.09839 0.78319 0.73118 0.0
H3061 H 0.09412 0.74289 0.69944 0.0
H3062 H 0.12177 0.7406 0.71022 0.0
H3063 H 0.11436 0.7413 0.6782 0.0
H3064 H 0.16573 0.82025 0.65604 0.0
H3065 H 0.19958 0.80872 0.67328 0.0
H3066 H 0.16113 0.76741 0.72153 0.0
C3067 C 0.08474 0.78516 0.67661 0.0
C3068 C 0.07707 0.79497 0.65621 0.0
C3069 C 0.09272 0.80935 0.64384 0.0
C3070 C 0.11563 0.81314 0.65103 0.0
C3071 C 0.12265 0.80251 0.67068 0.0
C3072 C 0.1077 0.78897 0.68345 0.0
C3073 C 0.11959 0.77752 0.70232 0.0
C3074 C 0.11624 0.78831 0.72848 0.0
C3075 C 0.11201 0.74889 0.69722 0.0
C3076 C 0.14348 0.78608 0.69762 0.0
C3077 C 0.14488 0.80069 0.67945 0.0
C3078 C 0.16491 0.80921 0.67056 0.0
C3079 C 0.184 0.80245 0.68033 0.0
C3080 C 0.1829 0.78732 0.69877 0.0
C3081 C 0.16245 0.7794 0.70778 0.0
H3082 H 0.12021 0.44197 0.41078 0.0
H3083 H 0.1848 0.44234 0.44794 0.0
H3084 H 0.182 0.47771 0.47896 0.0
H3085 H 0.12339 0.51336 0.43038 0.0
H3086 H 0.09432 0.50697 0.43449 0.0
H3087 H 0.10405 0.48787 0.41057 0.0
H3088 H 0.08688 0.44869 0.42755 0.0
H3089 H 0.07725 0.46696 0.45191 0.0
H3090 H 0.09493 0.44637 0.45906 0.0
H3091 H 0.16886 0.5043 0.51058 0.0
H3092 H 0.14672 0.52201 0.5403 0.0
H3093 H 0.08949 0.50375 0.48435 0.0
C3094 C 0.13426 0.45069 0.42462 0.0
C3095 C 0.15301 0.44019 0.42679 0.0
C3096 C 0.17062 0.45075 0.44582 0.0
C3097 C 0.16915 0.47082 0.46346 0.0
C3098 C 0.14988 0.47997 0.4618 0.0
C3099 C 0.13282 0.47057 0.44264 0.0
C3100 C 0.11238 0.48059 0.44758 0.0
C3101 C 0.1083 0.49825 0.4297 0.0
C3102 C 0.09166 0.45938 0.4465 0.0
C3103 C 0.11986 0.49488 0.47342 0.0
C3104 C 0.14183 0.49509 0.48085 0.0
C3105 C 0.15185 0.50489 0.50478 0.0
C3106 C 0.13907 0.5146 0.5216 0.0
C3107 C 0.11649 0.51422 0.51448 0.0
C3108 C 0.10688 0.50462 0.49003 0.0
H3109 H 0.47035 0.27739 0.2306 0.0
H3110 H 0.44303 0.21495 0.17201 0.0
H3111 H 0.40802 0.20634 0.19074 0.0
H3112 H 0.43992 0.2533 0.28138 0.0
H3113 H 0.43536 0.28369 0.29251 0.0
H3114 H 0.46005 0.28092 0.27842 0.0
H3115 H 0.45026 0.3087 0.24735 0.0
H3116 H 0.42565 0.31152 0.26128 0.0
H3117 H 0.42345 0.29988 0.22887 0.0
H3118 H 0.37469 0.20817 0.21213 0.0
H3119 H 0.34438 0.22279 0.2313 0.0
H3120 H 0.39255 0.28618 0.27432 0.0
C3121 C 0.45728 0.26128 0.22243 0.0
C3122 C 0.45936 0.24632 0.20038 0.0
C3123 C 0.44169 0.22621 0.18923 0.0
C3124 C 0.42187 0.22115 0.19981 0.0
C3125 C 0.41998 0.23667 0.22129 0.0
C3126 C 0.43717 0.25648 0.23238 0.0
C3127 C 0.4296 0.27304 0.25251 0.0
C3128 C 0.44197 0.2727 0.2777 0.0
C3129 C 0.4324 0.29984 0.24716 0.0
C3130 C 0.4053 0.25999 0.25042 0.0
C3131 C 0.40024 0.23865 0.23283 0.0
C3132 C 0.3785 0.22462 0.22622 0.0
C3133 C 0.36137 0.2331 0.23723 0.0
C3134 C 0.36606 0.25569 0.25428 0.0
C3135 C 0.38842 0.26875 0.2615 0.0
H3136 H 0.63799 0.51385 0.33978 0.0
H3137 H 0.70098 0.56499 0.36845 0.0
H3138 H 0.68714 0.57337 0.40864 0.0
H3139 H 0.60151 0.54645 0.37472 0.0
H3140 H 0.58377 0.51854 0.38092 0.0
H3141 H 0.59786 0.51744 0.35386 0.0
H3142 H 0.61553 0.48265 0.36707 0.0
H3143 H 0.60145 0.48363 0.39413 0.0
H3144 H 0.63128 0.48771 0.39704 0.0
H3145 H 0.66453 0.5784 0.44767 0.0
H3146 H 0.63933 0.57507 0.47982 0.0
H3147 H 0.59183 0.51669 0.42997 0.0
C3148 C 0.64894 0.52701 0.35438 0.0
C3149 C 0.671 0.53903 0.34971 0.0
C3150 C 0.68425 0.5555 0.37041 0.0
C3151 C 0.67633 0.56046 0.39374 0.0
C3152 C 0.65481 0.5485 0.39762 0.0
C3153 C 0.64142 0.53164 0.37848 0.0
C3154 C 0.61943 0.52011 0.38814 0.0
C3155 C 0.59945 0.52597 0.37353 0.0
C3156 C 0.61675 0.49184 0.38649 0.0
C3157 C 0.62232 0.53314 0.4154 0.0
C3158 C 0.64279 0.54985 0.42029 0.0
C3159 C 0.64873 0.56495 0.4437 0.0
C3160 C 0.63404 0.56292 0.46226 0.0
C3161 C 0.61314 0.54537 0.45868 0.0
C3162 C 0.60755 0.53025 0.43432 0.0
H3163 H 0.37183 0.93417 0.06969 0.0
H3164 H 0.31005 0.9585 0.0713 0.0
H3165 H 0.31463 0.96328 0.11662 0.0
H3166 H 0.36376 0.89552 0.10583 0.0
H3167 H 0.39128 0.901 0.12235 0.0
H3168 H 0.38799 0.90905 0.09248 0.0
H3169 H 0.40913 0.95452 0.10975 0.0
H3170 H 0.41259 0.9465 0.13998 0.0
H3171 H 0.39988 0.972 0.13522 0.0
H3172 H 0.31891 0.95164 0.15741 0.0
H3173 H 0.32261 0.92562 0.18916 0.0
H3174 H 0.38244 0.90981 0.1622 0.0
C3175 C 0.35993 0.94168 0.07987 0.0
C3176 C 0.34064 0.94595 0.06743 0.0
C3177 C 0.32505 0.95543 0.08079 0.0
C3178 C 0.32763 0.95829 0.1065 0.0
C3179 C 0.34618 0.95225 0.11835 0.0
C3180 C 0.36245 0.9448 0.10544 0.0
C3181 C 0.37842 0.93487 0.12144 0.0
C3182 C 0.38041 0.90857 0.10984 0.0
C3183 C 0.40136 0.95307 0.12693 0.0
C3184 C 0.36683 0.93455 0.14425 0.0
C3185 C 0.34888 0.94576 0.14263 0.0
C3186 C 0.33334 0.94367 0.15934 0.0
C3187 C 0.33546 0.9287 0.17722 0.0
C3188 C 0.35287 0.91584 0.17803 0.0
C3189 C 0.3694 0.92006 0.16235 0.0
H3190 H 0.98375 0.59469 0.88437 0.0
H3191 H 0.92888 0.53587 0.8948 0.0
H3192 H 0.95294 0.52489 0.92745 0.0
H3193 H 0.02644 0.56306 0.89214 0.0
H3194 H 0.04692 0.58951 0.90903 0.0
H3195 H 0.02518 0.59416 0.88759 0.0
H3196 H 1.01304 0.62362 0.92178 0.0
H3197 H 0.03503 0.61946 0.94324 0.0
H3198 H 1.00666 0.61294 0.95 0.0
H3199 H 0.98361 0.51708 0.95475 0.0
H3200 H 1.01777 0.51699 0.98095 0.0
H3201 H 0.05256 0.58292 0.95564 0.0
C3202 C 0.97673 0.5798 0.89388 0.0
C3203 C 0.95452 0.56608 0.88718 0.0
C3204 C 0.94581 0.54671 0.89987 0.0
C3205 C 0.95938 0.54025 0.91828 0.0
C3206 C 0.98141 0.55365 0.92393 0.0
C3207 C 0.98993 0.57339 0.91257 0.0
C3208 C 1.01423 0.58465 0.92217 0.0
C3209 C 0.02906 0.58272 0.9015 0.0
C3210 C 1.01742 0.61178 0.93507 0.0
C3211 C 1.01816 0.56775 0.94033 0.0
C3212 C 0.99899 0.5499 0.9408 0.0
C3213 C 0.99855 0.53134 0.95504 0.0
C3214 C 1.01803 0.5315 0.96987 0.0
C3215 C 0.03751 0.55042 0.97084 0.0
C3216 C 0.03776 0.56848 0.95547 0.0
H3217 H 0.27705 0.25383 0.57898 0.0
H3218 H 0.32549 0.20789 0.57209 0.0
H3219 H 0.337 0.21877 0.61697 0.0
H3220 H 0.30914 0.30257 0.62561 0.0
H3221 H 0.28593 0.30683 0.64185 0.0
H3222 H 0.28142 0.29542 0.60928 0.0
H3223 H 0.25273 0.25657 0.61588 0.0
H3224 H 0.25705 0.26793 0.64846 0.0
H3225 H 0.26075 0.23726 0.63689 0.0
H3226 H 0.34485 0.23692 0.66237 0.0
H3227 H 0.34584 0.25706 0.70523 0.0
H3228 H 0.29052 0.2891 0.6834 0.0
C3229 C 0.29006 0.24598 0.5869 0.0
C3230 C 0.30047 0.23008 0.57188 0.0
C3231 C 0.31722 0.22003 0.58311 0.0
C3232 C 0.32394 0.22621 0.60861 0.0
C3233 C 0.3135 0.24216 0.62278 0.0
C3234 C 0.29667 0.25159 0.61238 0.0
C3235 C 0.28777 0.26784 0.6318 0.0
C3236 C 0.29128 0.29476 0.62683 0.0
C3237 C 0.26311 0.25673 0.63335 0.0
C3238 C 0.30242 0.26637 0.65477 0.0
C3239 C 0.3173 0.25166 0.64908 0.0
C3240 C 0.33311 0.24825 0.66701 0.0
C3241 C 0.33361 0.25992 0.69136 0.0
C3242 C 0.31821 0.27465 0.69784 0.0
C3243 C 0.30239 0.27781 0.67916 0.0
H3244 H 0.64647 0.56556 0.21118 0.0
H3245 H 0.66897 0.49679 0.19742 0.0
H3246 H 0.65212 0.49043 0.15377 0.0
H3247 H 0.59405 0.54561 0.17191 0.0
H3248 H 0.59543 0.57508 0.16164 0.0
H3249 H 0.60934 0.57408 0.19131 0.0
H3250 H 0.6465 0.59738 0.17962 0.0
H3251 H 0.63269 0.59857 0.14995 0.0
H3252 H 0.65666 0.58504 0.15207 0.0
H3253 H 0.62952 0.49104 0.10938 0.0
H3254 H 0.60882 0.49979 0.07258 0.0
H3255 H 0.60248 0.56957 0.11421 0.0
C3256 C 0.64813 0.54907 0.19914 0.0
C3257 C 0.65953 0.5317 0.20882 0.0
C3258 C 0.66083 0.51068 0.19143 0.0
C3259 C 0.65101 0.50686 0.16626 0.0
C3260 C 0.63978 0.52424 0.15768 0.0
C3261 C 0.63866 0.54518 0.17383 0.0
C3262 C 0.6261 0.5615 0.1603 0.0
C3263 C 0.60498 0.56423 0.17199 0.0
C3264 C 0.64139 0.58715 0.1605 0.0
C3265 C 0.62004 0.54666 0.13396 0.0
C3266 C 0.62791 0.52503 0.13284 0.0
C3267 C 0.62367 0.50812 0.11053 0.0
C3268 C 0.61163 0.51331 0.08935 0.0
C3269 C 0.6036 0.53555 0.08944 0.0
C3270 C 0.60816 0.55237 0.11263 0.0
H3271 H 0.31917 0.91397 0.91251 0.0
H3272 H 0.2985 0.86362 0.96302 0.0
H3273 H 0.29585 0.82747 0.93008 0.0
H3274 H 0.2846 0.87854 0.85879 0.0
H3275 H 0.30539 0.8861 0.83871 0.0
H3276 H 0.30522 0.90754 0.86628 0.0
H3277 H 0.34626 0.90698 0.88017 0.0
H3278 H 0.34648 0.88538 0.85269 0.0
H3279 H 0.3536 0.87764 0.88236 0.0
H3280 H 0.29409 0.79668 0.8901 0.0
H3281 H 0.29466 0.77498 0.84764 0.0
H3282 H 0.31914 0.84662 0.82613 0.0
C3283 C 0.31396 0.89535 0.91662 0.0
C3284 C 0.30884 0.8915 0.94014 0.0
C3285 C 0.30242 0.86688 0.94498 0.0
C3286 C 0.30089 0.84627 0.92643 0.0
C3287 C 0.30615 0.85072 0.90335 0.0
C3288 C 0.31272 0.87471 0.89854 0.0
C3289 C 0.31789 0.87473 0.87253 0.0
C3290 C 0.30234 0.88747 0.85825 0.0
C3291 C 0.34252 0.8869 0.87192 0.0
C3292 C 0.31293 0.84704 0.86331 0.0
C3293 C 0.30607 0.83331 0.88113 0.0
C3294 C 0.29966 0.80727 0.87606 0.0
C3295 C 0.30005 0.79509 0.85202 0.0
C3296 C 0.30697 0.80911 0.8337 0.0
C3297 C 0.31381 0.8353 0.83971 0.0
H3298 H 0.99058 0.6101 0.77577 0.0
H3299 H 0.92478 0.56478 0.74756 0.0
H3300 H 0.93397 0.5651 0.70525 0.0
H3301 H 0.99922 0.64468 0.72045 0.0
H3302 H 0.02814 0.64329 0.72349 0.0
H3303 H 1.01404 0.64664 0.75043 0.0
H3304 H 0.0257 0.60762 0.76272 0.0
H3305 H 0.03942 0.60387 0.73583 0.0
H3306 H 1.01805 0.57857 0.74139 0.0
H3307 H 0.95336 0.56042 0.66804 0.0
H3308 H 0.98061 0.55252 0.63968 0.0
H3309 H 0.0338 0.60099 0.69192 0.0
C3310 C 0.97776 0.60119 0.76064 0.0
C3311 C 0.95703 0.58736 0.76489 0.0
C3312 C 0.94072 0.57569 0.74471 0.0
C3313 C 0.94581 0.5758 0.72058 0.0
C3314 C 0.96707 0.5881 0.71705 0.0
C3315 C 0.98265 0.60109 0.73659 0.0
C3316 C 1.00538 0.60913 0.72857 0.0
C3317 C 1.01208 0.63763 0.73087 0.0
C3318 C 1.02314 0.59918 0.74296 0.0
C3319 C 1.00067 0.59671 0.70198 0.0
C3320 C 0.97837 0.58534 0.69539 0.0
C3321 C 0.9707 0.56992 0.67272 0.0
C3322 C 0.98628 0.56548 0.65675 0.0
C3323 C 1.00925 0.57614 0.66375 0.0
C3324 C 1.0163 0.59266 0.68618 0.0
H3325 H 0.30313 0.19659 0.41317 0.0
H3326 H 0.27929 0.25287 0.45936 0.0
H3327 H 0.27746 0.27622 0.42512 0.0
H3328 H 0.33871 0.23759 0.38281 0.0
H3329 H 0.33236 0.21792 0.35304 0.0
H3330 H 0.3298 0.20426 0.38038 0.0
H3331 H 0.28952 0.18238 0.36284 0.0
H3332 H 0.29046 0.19748 0.33621 0.0
H3333 H 0.26958 0.20063 0.35609 0.0
H3334 H 0.27955 0.29467 0.38731 0.0
H3335 H 0.28862 0.30954 0.34918 0.0
H3336 H 0.31333 0.24346 0.32618 0.0
C3337 C 0.29722 0.21365 0.4159 0.0
C3338 C 0.29117 0.22278 0.43906 0.0
C3339 C 0.28393 0.24541 0.44193 0.0
C3340 C 0.28276 0.2588 0.4225 0.0
C3341 C 0.28904 0.24955 0.40011 0.0
C3342 C 0.29628 0.22761 0.39663 0.0
C3343 C 0.30305 0.22276 0.37087 0.0
C3344 C 0.32743 0.22051 0.37185 0.0
C3345 C 0.28723 0.19939 0.35563 0.0
C3346 C 0.29976 0.24614 0.36105 0.0
C3347 C 0.29095 0.2608 0.37811 0.0
C3348 C 0.28646 0.28335 0.37384 0.0
C3349 C 0.29172 0.29165 0.35202 0.0
C3350 C 0.30175 0.2778 0.33454 0.0
C3351 C 0.30539 0.25435 0.33891 0.0
H3352 H 0.39466 0.64413 0.5233 0.0
H3353 H 0.36014 0.60827 0.57772 0.0
H3354 H 0.38551 0.57934 0.5772 0.0
H3355 H 0.40034 0.5901 0.48754 0.0
H3356 H 0.42751 0.60284 0.47964 0.0
H3357 H 0.40894 0.62298 0.48686 0.0
H3358 H 0.43885 0.65096 0.52096 0.0
H3359 H 0.45767 0.63109 0.51355 0.0
H3360 H 0.45114 0.63711 0.54455 0.0
H3361 H 0.41283 0.55217 0.56807 0.0
H3362 H 0.43992 0.52928 0.55116 0.0
H3363 H 0.45515 0.58246 0.50189 0.0
C3364 C 0.39278 0.63063 0.5356 0.0
C3365 C 0.37556 0.62853 0.55069 0.0
C3366 C 0.37334 0.61027 0.56613 0.0
C3367 C 0.38766 0.59378 0.56595 0.0
C3368 C 0.40405 0.59586 0.55025 0.0
C3369 C 0.40676 0.61396 0.53548 0.0
C3370 C 0.42444 0.61114 0.51887 0.0
C3371 C 0.41472 0.60648 0.49162 0.0
C3372 C 0.4442 0.63392 0.52485 0.0
C3373 C 0.43087 0.58824 0.52612 0.0
C3374 C 0.4192 0.57986 0.54448 0.0
C3375 C 0.42215 0.55866 0.55379 0.0
C3376 C 0.43748 0.54577 0.54408 0.0
C3377 C 0.44934 0.55397 0.52505 0.0
C3378 C 0.446 0.57553 0.51613 0.0
H3379 H 0.93662 0.92615 0.52919 0.0
H3380 H 0.89736 0.97573 0.5615 0.0
H3381 H 0.92988 1.01084 0.56711 0.0
H3382 H 0.98848 0.95602 0.56886 0.0
H3383 H 1.00654 0.95334 0.54547 0.0
H3384 H 0.98087 0.93034 0.5435 0.0
H3385 H 0.96761 0.93799 0.50063 0.0
H3386 H 0.99355 0.96014 0.50133 0.0
H3387 H 0.96754 0.96929 0.49577 0.0
H3388 H 0.9657 0.04069 0.56947 0.0
H3389 H 1.00285 0.06495 0.56605 0.0
H3390 H 1.02051 0.99797 0.53088 0.0
C3391 C 0.9349 0.94438 0.53754 0.0
C3392 C 0.91421 0.948 0.54492 0.0
C3393 C 0.9128 0.97227 0.55563 0.0
C3394 C 0.93127 0.99242 0.55899 0.0
C3395 C 0.95124 0.98826 0.55153 0.0
C3396 C 0.9533 0.96495 0.54092 0.0
C3397 C 0.9768 0.96615 0.53405 0.0
C3398 C 0.98886 0.9505 0.54884 0.0
C3399 C 0.97633 0.9579 0.50629 0.0
C3400 C 0.9873 0.99388 0.54187 0.0
C3401 C 0.97221 1.00599 0.55231 0.0
C3402 C 0.97765 0.03144 0.56127 0.0
C3403 C 0.99891 0.04508 0.55923 0.0
C3404 C 1.01468 0.03352 0.54803 0.0
C3405 C 1.00883 1.00741 0.5394 0.0
H3406 H 0.88864 0.12788 0.25889 0.0
H3407 H 0.9574 0.16881 0.27566 0.0
H3408 H 0.94504 0.20838 0.27931 0.0
H3409 H 0.86885 0.17245 0.22331 0.0
H3410 H 0.84236 0.16942 0.23498 0.0
H3411 H 0.8562 0.14388 0.23313 0.0
H3412 H 0.85445 0.14321 0.27926 0.0
H3413 H 0.84062 0.16876 0.28124 0.0
H3414 H 0.86593 0.17131 0.30119 0.0
H3415 H 0.92475 0.24617 0.28121 0.0
H3416 H 0.8999 0.27556 0.28171 0.0
H3417 H 0.84271 0.21314 0.26493 0.0
C3418 C 0.90126 0.1451 0.2632 0.0
C3419 C 0.92461 0.14404 0.26673 0.0
C3420 C 0.93971 0.16789 0.27262 0.0
C3421 C 0.93268 0.19097 0.2748 0.0
C3422 C 0.90994 0.19131 0.27131 0.0
C3423 C 0.89436 0.16885 0.26566 0.0
C3424 C 0.87084 0.17481 0.2632 0.0
C3425 C 0.85884 0.16451 0.23711 0.0
C3426 C 0.85714 0.16385 0.28235 0.0
C3427 C 0.87554 0.20383 0.26829 0.0
C3428 C 0.89836 0.21285 0.27283 0.0
C3429 C 0.90692 0.23886 0.2777 0.0
C3430 C 0.89238 0.2558 0.27797 0.0
C3431 C 0.86868 0.24781 0.2736 0.0
C3432 C 0.86047 0.22084 0.26866 0.0
H3433 H 0.72148 0.14973 0.02354 0.0
H3434 H 0.76129 0.1103 0.06463 0.0
H3435 H 0.72699 0.08765 0.07875 0.0
H3436 H 0.68325 0.15773 0.06668 0.0
H3437 H 0.65991 0.15295 0.04322 0.0
H3438 H 0.6876 0.16591 0.03696 0.0
H3439 H 0.6833 0.1308 0.99923 0.0
H3440 H 0.65547 0.11808 1.00509 0.0
H3441 H 0.67537 0.09868 1.00315 0.0
H3442 H 0.68694 0.06898 0.0876 0.0
H3443 H 0.64598 0.05381 0.08657 0.0
H3444 H 0.63483 0.10716 0.04011 0.0
C3445 C 0.72316 0.13644 0.03563 0.0
C3446 C 0.74407 0.13193 0.04317 0.0
C3447 C 0.74537 0.11401 0.05861 0.0
C3448 C 0.72603 0.10124 0.06685 0.0
C3449 C 0.70567 0.10664 0.05939 0.0
C3450 C 0.70425 0.12369 0.04388 0.0
C3451 C 0.68064 0.12573 0.03742 0.0
C3452 C 0.67769 0.15215 0.04663 0.0
C3453 C 0.67327 0.11784 1.00959 0.0
C3454 C 0.66877 0.10714 0.05167 0.0
C3455 C 0.68328 0.09629 0.06444 0.0
C3456 C 0.67551 0.07758 0.07788 0.0
C3457 C 0.65232 0.06926 0.07745 0.0
C3458 C 0.6375 0.07965 0.06353 0.0
C3459 C 0.64591 0.0992 0.05117 0.0
H3460 H 0.24735 0.49488 0.27074 0.0
H3461 H 0.26555 0.50884 0.19963 0.0
H3462 H 0.29758 0.48899 0.20574 0.0
H3463 H 0.3025 0.51149 0.30076 0.0
H3464 H 0.29776 0.48873 0.32082 0.0
H3465 H 0.27517 0.50152 0.30962 0.0
H3466 H 0.25167 0.45707 0.29157 0.0
H3467 H 0.27395 0.44413 0.30327 0.0
H3468 H 0.26332 0.43639 0.2711 0.0
H3469 H 0.3266 0.46587 0.21985 0.0
H3470 H 0.34988 0.44205 0.24023 0.0
H3471 H 0.31602 0.45153 0.30507 0.0
C3472 C 0.25773 0.49316 0.25615 0.0
C3473 C 0.25382 0.50266 0.23444 0.0
C3474 C 0.26821 0.50113 0.21617 0.0
C3475 C 0.28643 0.49009 0.21959 0.0
C3476 C 0.2902 0.48154 0.24166 0.0
C3477 C 0.27628 0.48316 0.25965 0.0
C3478 C 0.28447 0.47411 0.28231 0.0
C3479 C 0.29033 0.49523 0.30469 0.0
C3480 C 0.26734 0.45159 0.28734 0.0
C3481 C 0.30504 0.46665 0.27417 0.0
C3482 C 0.30801 0.47076 0.25062 0.0
C3483 C 0.32472 0.46301 0.23849 0.0
C3484 C 0.33809 0.44976 0.25041 0.0
C3485 C 0.33485 0.44481 0.27437 0.0
C3486 C 0.31883 0.45461 0.28668 0.0
H3487 H 0.26924 0.421 0.03187 0.0
H3488 H 0.31915 0.48309 0.07424 0.0
H3489 H 0.29188 0.50969 0.07385 0.0
H3490 H 0.2451 0.45607 0.99309 0.0
H3491 H 0.21686 0.43872 0.99203 0.0
H3492 H 0.23967 0.42386 0.997 0.0
H3493 H 0.22569 0.41187 0.03715 0.0
H3494 H 0.20271 0.42652 0.0322 0.0
H3495 H 0.22125 0.43581 0.06058 0.0
H3496 H 0.26001 0.53034 0.06684 0.0
H3497 H 0.22531 0.54322 0.0554 0.0
H3498 H 0.19551 0.46803 0.01732 0.0
C3499 C 0.27432 0.44006 0.04146 0.0
C3500 C 0.29639 0.44988 0.05325 0.0
C3501 C 0.30239 0.47506 0.06521 0.0
C3502 C 0.287 0.49035 0.06505 0.0
C3503 C 0.26556 0.48026 0.05286 0.0
C3504 C 0.25913 0.45565 0.04144 0.0
C3505 C 0.23524 0.44971 0.02902 0.0
C3506 C 0.23417 0.44162 1.00113 0.0
C3507 C 0.22034 0.4298 0.04042 0.0
C3508 C 0.22933 0.4749 0.03503 0.0
C3509 C 0.24711 0.49222 0.0488 0.0
C3510 C 0.24598 0.5169 0.05611 0.0
C3511 C 0.2262 0.5241 0.04931 0.0
C3512 C 0.20761 0.50677 0.03525 0.0
C3513 C 0.2093 0.48175 0.02817 0.0
H3514 H 0.89419 1.00275 0.27097 0.0
H3515 H 0.95494 0.97854 0.2574 0.0
H3516 H 0.93607 0.93547 0.2573 0.0
H3517 H 0.87527 0.95783 0.31079 0.0
H3518 H 0.8462 0.95112 0.29883 0.0
H3519 H 0.86393 0.98098 0.29767 0.0
H3520 H 0.85276 0.97444 0.2508 0.0
H3521 H 0.83492 0.94462 0.25187 0.0
H3522 H 0.85628 0.94671 0.23177 0.0
H3523 H 0.91137 0.89315 0.26045 0.0
H3524 H 0.88194 0.8563 0.2635 0.0
H3525 H 0.83522 0.90395 0.27307 0.0
C3526 C 0.90351 0.98846 0.26765 0.0
C3527 C 0.92672 0.99529 0.26437 0.0
C3528 C 0.93758 0.97504 0.2603 0.0
C3529 C 0.92688 0.94995 0.26017 0.0
C3530 C 0.90457 0.94398 0.26391 0.0
C3531 C 0.89279 0.96256 0.26728 0.0
C3532 C 0.8687 0.95028 0.27064 0.0
C3533 C 0.8632 0.96068 0.29599 0.0
C3534 C 0.85218 0.95426 0.25005 0.0
C3535 C 0.86903 0.92234 0.26874 0.0
C3536 C 0.89006 0.91928 0.26501 0.0
C3537 C 0.89481 0.89549 0.26323 0.0
C3538 C 0.87787 0.87441 0.26509 0.0
C3539 C 0.85588 0.87651 0.26853 0.0
C3540 C 0.85167 0.90119 0.27034 0.0
H3541 H 0.7343 0.11645 0.74892 0.0
H3542 H 0.69244 0.12305 0.80711 0.0
H3543 H 0.71109 0.16777 0.8192 0.0
H3544 H 0.78419 0.15705 0.78156 0.0
H3545 H 0.79245 0.17005 0.75502 0.0
H3546 H 0.77589 0.13871 0.75127 0.0
H3547 H 0.74607 0.14985 0.72166 0.0
H3548 H 0.76258 0.18118 0.72523 0.0
H3549 H 0.73411 0.1759 0.73167 0.0
H3550 H 0.73534 0.21166 0.82537 0.0
H3551 H 0.76095 0.25156 0.82322 0.0
H3552 H 0.7858 0.2156 0.76008 0.0
C3553 C 0.72902 0.12724 0.76424 0.0
C3554 C 0.71196 0.11629 0.77713 0.0
C3555 C 0.70541 0.13113 0.7969 0.0
C3556 C 0.71598 0.15647 0.80397 0.0
C3557 C 0.73287 0.16661 0.79092 0.0
C3558 C 0.73918 0.15246 0.77133 0.0
C3559 C 0.7574 0.16776 0.75991 0.0
C3560 C 0.77874 0.15779 0.76209 0.0
C3561 C 0.74956 0.16873 0.73303 0.0
C3562 C 0.76042 0.19283 0.77609 0.0
C3563 C 0.7463 0.1918 0.79403 0.0
C3564 C 0.74637 0.21268 0.81131 0.0
C3565 C 0.76104 0.23525 0.80998 0.0
C3566 C 0.77533 0.23677 0.7914 0.0
C3567 C 0.775 0.21516 0.77438 0.0
loop_
_geom_bond_atom_site_label_1
_geom_bond_atom_site_label_2
_geom_bond_distance
_geom_bond_site_symmetry_2
_ccdc_geom_bond_type
Co0 O1 2.216 . S
Co0 O2 2.091 . S
Co0 O4 2.004 . S
Co0 O10 2.021 . S
Co0 O12 2.137 . S
Co0 O13 2.244 . S
O1 Co0 2.216 . S
O1 C8 1.247 . S
O2 Co0 2.091 . S
O2 C8 1.261 . S
C3 O12 1.247 . S
C3 O13 1.272 . S
O4 Co0 2.004 . S
O4 C9 1.259 . S
Co5 O6 2.061 . S
Co5 O11 2.052 . S
Co5 O13 2.135 . S
O6 Co5 2.061 . S
O6 C9 1.235 . S
C7 O10 1.238 . S
C7 O11 1.241 . S
C8 O1 1.247 . S
C8 O2 1.261 . S
C9 O4 1.259 . S
C9 O6 1.235 . S
O10 Co0 2.021 . S
O10 C7 1.238 . S
O11 Co5 2.052 . S
O11 C7 1.241 . S
O12 Co0 2.137 . S
O12 C3 1.247 . S
O13 Co0 2.244 . S
O13 C3 1.272 . S
O13 Co5 2.135 . S
Co14 O15 2.216 . S
Co14 O16 2.091 . S
Co14 O18 2.004 1_655 S
Co14 O24 2.021 . S
Co14 O26 2.137 . S
Co14 O27 2.244 1_655 S
O15 Co14 2.216 . S
O15 C22 1.247 . S
O16 Co14 2.091 . S
O16 C22 1.261 . S
C17 O26 1.247 1_455 S
C17 O27 1.272 . S
O18 Co14 2.004 1_455 S
O18 C23 1.259 . S
Co19 O20 2.061 . S
Co19 O25 2.052 . S
Co19 O27 2.135 . S
O20 Co19 2.061 . S
O20 C23 1.235 . S
C21 O24 1.238 . S
C21 O25 1.241 1_655 S
C22 O15 1.247 . S
C22 O16 1.261 . S
C23 O18 1.259 . S
C23 O20 1.235 . S
O24 Co14 2.021 . S
O24 C21 1.238 . S
O25 Co19 2.052 . S
O25 C21 1.241 1_455 S
O26 Co14 2.137 . S
O26 C17 1.247 1_655 S
O27 Co14 2.244 1_455 S
O27 C17 1.272 . S
O27 Co19 2.135 . S
Co28 O29 2.216 . S
Co28 O30 2.091 . S
Co28 O32 2.004 . S
Co28 O38 2.021 . S
Co28 O40 2.137 . S
Co28 O41 2.244 . S
O29 Co28 2.216 . S
O29 C36 1.247 . S
O30 Co28 2.091 . S
O30 C36 1.261 . S
C31 O40 1.247 . S
C31 O41 1.272 . S
O32 Co28 2.004 . S
O32 C37 1.259 . S
Co33 O34 2.061 . S
Co33 O39 2.052 . S
Co33 O41 2.135 . S
O34 Co33 2.061 . S
O34 C37 1.235 . S
C35 O38 1.238 . S
C35 O39 1.241 . S
C36 O29 1.247 . S
C36 O30 1.261 . S
C37 O32 1.259 . S
C37 O34 1.235 . S
O38 Co28 2.021 . S
O38 C35 1.238 . S
O39 Co33 2.052 . S
O39 C35 1.241 . S
O40 Co28 2.137 . S
O40 C31 1.247 . S
O41 Co28 2.244 . S
O41 C31 1.272 . S
O41 Co33 2.135 . S
Co42 O43 2.216 . S
Co42 O44 2.091 . S
Co42 O46 2.004 . S
Co42 O52 2.021 . S
Co42 O54 2.137 . S
Co42 O55 2.244 . S
O43 Co42 2.216 . S
O43 C50 1.247 . S
O44 Co42 2.091 . S
O44 C50 1.261 . S
C45 O54 1.247 . S
C45 O55 1.272 . S
O46 Co42 2.004 . S
O46 C51 1.259 . S
Co47 O48 2.061 . S
Co47 O53 2.052 . S
Co47 O55 2.135 . S
O48 Co47 2.061 . S
O48 C51 1.235 . S
C49 O52 1.238 . S
C49 O53 1.241 . S
C50 O43 1.247 . S
C50 O44 1.261 . S
C51 O46 1.259 . S
C51 O48 1.235 . S
O52 Co42 2.021 . S
O52 C49 1.238 . S
O53 Co47 2.052 . S
O53 C49 1.241 . S
O54 Co42 2.137 . S
O54 C45 1.247 . S
O55 Co42 2.244 . S
O55 C45 1.272 . S
O55 Co47 2.135 . S
Co56 O57 2.216 . S
Co56 O58 2.091 . S
Co56 O60 2.004 . S
Co56 O66 2.021 . S
Co56 O68 2.137 . S
Co56 O69 2.244 . S
O57 Co56 2.216 . S
O57 C64 1.247 . S
O58 Co56 2.091 . S
O58 C64 1.261 . S
C59 O68 1.247 . S
C59 O69 1.272 . S
O60 Co56 2.004 . S
O60 C65 1.259 . S
Co61 O62 2.061 . S
Co61 O67 2.052 . S
Co61 O69 2.135 . S
O62 Co61 2.061 . S
O62 C65 1.235 . S
C63 O66 1.238 . S
C63 O67 1.241 . S
C64 O57 1.247 . S
C64 O58 1.261 . S
C65 O60 1.259 . S
C65 O62 1.235 . S
O66 Co56 2.021 . S
O66 C63 1.238 . S
O67 Co61 2.052 . S
O67 C63 1.241 . S
O68 Co56 2.137 . S
O68 C59 1.247 . S
O69 Co56 2.244 . S
O69 C59 1.272 . S
O69 Co61 2.135 . S
Co70 O71 2.216 . S
Co70 O72 2.091 . S
Co70 O74 2.004 . S
Co70 O80 2.021 . S
Co70 O82 2.137 . S
Co70 O83 2.244 . S
O71 Co70 2.216 . S
O71 C78 1.247 . S
O72 Co70 2.091 . S
O72 C78 1.261 . S
C73 O82 1.247 . S
C73 O83 1.272 . S
O74 Co70 2.004 . S
O74 C79 1.259 . S
Co75 O76 2.061 . S
Co75 O81 2.052 . S
Co75 O83 2.135 . S
O76 Co75 2.061 . S
O76 C79 1.235 . S
C77 O80 1.238 . S
C77 O81 1.241 . S
C78 O71 1.247 . S
C78 O72 1.261 . S
C79 O74 1.259 . S
C79 O76 1.235 . S
O80 Co70 2.021 . S
O80 C77 1.238 . S
O81 Co75 2.052 . S
O81 C77 1.241 . S
O82 Co70 2.137 . S
O82 C73 1.247 . S
O83 Co70 2.244 . S
O83 C73 1.272 . S
O83 Co75 2.135 . S
Co84 O85 2.216 . S
Co84 O86 2.091 . S
Co84 O88 2.004 . S
Co84 O94 2.021 . S
Co84 O96 2.137 . S
Co84 O97 2.244 . S
O85 Co84 2.216 . S
O85 C92 1.247 . S
O86 Co84 2.091 . S
O86 C92 1.261 . S
C87 O96 1.247 . S
C87 O97 1.272 . S
O88 Co84 2.004 . S
O88 C93 1.259 . S
Co89 O90 2.061 . S
Co89 O95 2.052 . S
Co89 O97 2.135 . S
O90 Co89 2.061 . S
O90 C93 1.235 . S
C91 O94 1.238 . S
C91 O95 1.241 . S
C92 O85 1.247 . S
C92 O86 1.261 . S
C93 O88 1.259 . S
C93 O90 1.235 . S
O94 Co84 2.021 . S
O94 C91 1.238 . S
O95 Co89 2.052 . S
O95 C91 1.241 . S
O96 Co84 2.137 . S
O96 C87 1.247 . S
O97 Co84 2.244 . S
O97 C87 1.272 . S
O97 Co89 2.135 . S
Co98 O99 2.216 . S
Co98 O100 2.091 . S
Co98 O102 2.004 1_455 S
Co98 O108 2.021 . S
Co98 O110 2.137 . S
Co98 O111 2.244 . S
O99 Co98 2.216 . S
O99 C106 1.247 . S
O100 Co98 2.091 . S
O100 C106 1.261 . S
C101 O110 1.247 . S
C101 O111 1.272 . S
O102 Co98 2.004 1_655 S
O102 C107 1.259 . S
Co103 O104 2.061 . S
Co103 O109 2.052 1_655 S
Co103 O111 2.135 1_655 S
O104 Co103 2.061 . S
O104 C107 1.235 . S
C105 O108 1.238 . S
C105 O109 1.241 . S
C106 O99 1.247 . S
C106 O100 1.261 . S
C107 O102 1.259 . S
C107 O104 1.235 . S
O108 Co98 2.021 . S
O108 C105 1.238 . S
O109 Co103 2.052 1_455 S
O109 C105 1.241 . S
O110 Co98 2.137 . S
O110 C101 1.247 . S
O111 Co98 2.244 . S
O111 C101 1.272 . S
O111 Co103 2.135 1_455 S
Co112 O113 2.216 . S
Co112 O114 2.091 . S
Co112 O116 2.004 1_545 S
Co112 O122 2.021 . S
Co112 O124 2.137 . S
Co112 O125 2.263 . S
O113 Co112 2.216 . S
O113 C120 1.247 . S
O114 Co112 2.091 . S
O114 C120 1.261 . S
C115 O124 1.247 . S
C115 O125 1.283 . S
O116 Co112 2.004 1_565 S
O116 C121 1.259 . S
Co117 O118 2.061 . S
Co117 O123 2.052 . S
Co117 O125 2.100 1_565 S
O118 Co117 2.061 . S
O118 C121 1.235 . S
C119 O122 1.224 1_565 S
C119 O123 1.241 . S
C120 O113 1.247 . S
C120 O114 1.261 . S
C121 O116 1.259 . S
C121 O118 1.235 . S
O122 Co112 2.021 . S
O122 C119 1.224 1_545 S
O123 Co117 2.052 . S
O123 C119 1.241 . S
O124 Co112 2.137 . S
O124 C115 1.247 . S
O125 Co112 2.263 . S
O125 C115 1.283 . S
O125 Co117 2.100 1_545 S
Co126 O127 2.216 . S
Co126 O128 2.091 . S
Co126 O130 2.004 . S
Co126 O136 2.021 . S
Co126 O138 2.137 . S
Co126 O139 2.244 . S
O127 Co126 2.216 . S
O127 C134 1.247 . S
O128 Co126 2.091 . S
O128 C134 1.261 . S
C129 O138 1.247 . S
C129 O139 1.272 . S
O130 Co126 2.004 . S
O130 C135 1.259 . S
Co131 O132 2.061 . S
Co131 O137 2.052 . S
Co131 O139 2.135 . S
O132 Co131 2.061 . S
O132 C135 1.235 . S
C133 O136 1.238 . S
C133 O137 1.241 . S
C134 O127 1.247 . S
C134 O128 1.261 . S
C135 O130 1.259 . S
C135 O132 1.235 . S
O136 Co126 2.021 . S
O136 C133 1.238 . S
O137 Co131 2.052 . S
O137 C133 1.241 . S
O138 Co126 2.137 . S
O138 C129 1.247 . S
O139 Co126 2.244 . S
O139 C129 1.272 . S
O139 Co131 2.135 . S
Co140 O141 2.216 1_545 S
Co140 O142 2.091 1_545 S
Co140 O144 2.004 . S
Co140 O150 2.021 1_545 S
Co140 O152 2.137 . S
Co140 O153 2.244 . S
O141 Co140 2.216 1_565 S
O141 C148 1.247 . S
O142 Co140 2.091 1_565 S
O142 C148 1.261 . S
C143 O152 1.247 . S
C143 O153 1.272 . S
O144 Co140 2.004 . S
O144 C149 1.259 . S
Co145 O146 2.061 . S
Co145 O151 2.052 . S
Co145 O153 2.135 . S
O146 Co145 2.061 . S
O146 C149 1.235 . S
C147 O150 1.238 1_545 S
C147 O151 1.241 . S
C148 O141 1.247 . S
C148 O142 1.261 . S
C149 O144 1.259 . S
C149 O146 1.235 . S
O150 Co140 2.021 1_565 S
O150 C147 1.238 1_565 S
O151 Co145 2.052 . S
O151 C147 1.241 . S
O152 Co140 2.137 . S
O152 C143 1.247 . S
O153 Co140 2.244 . S
O153 C143 1.272 . S
O153 Co145 2.135 . S
Co154 O155 2.219 1_554 S
Co154 O156 2.091 . S
Co154 O158 2.004 . S
Co154 O164 2.021 . S
Co154 O166 2.137 1_554 S
Co154 O167 2.244 1_554 S
O155 Co154 2.219 1_556 S
O155 C162 1.246 1_556 S
O156 Co154 2.091 . S
O156 C162 1.261 . S
C157 O166 1.247 . S
C157 O167 1.272 . S
O158 Co154 2.004 . S
O158 C163 1.259 . S
Co159 O160 2.061 . S
Co159 O165 2.086 . S
Co159 O167 2.114 1_554 S
O160 Co159 2.061 . S
O160 C163 1.235 . S
C161 O164 1.238 . S
C161 O165 1.241 . S
C162 O155 1.246 1_554 S
C162 O156 1.261 . S
C163 O158 1.259 . S
C163 O160 1.235 . S
O164 Co154 2.021 . S
O164 C161 1.238 . S
O165 Co159 2.086 . S
O165 C161 1.241 . S
O166 Co154 2.137 1_556 S
O166 C157 1.247 . S
O167 Co154 2.244 1_556 S
O167 C157 1.272 . S
O167 Co159 2.114 1_556 S
Co168 O169 2.216 . S
Co168 O170 2.091 . S
Co168 O172 2.004 . S
Co168 O178 2.021 . S
Co168 O180 2.137 1_554 S
Co168 O181 2.244 1_554 S
O169 Co168 2.216 . S
O169 C176 1.247 . S
O170 Co168 2.091 . S
O170 C176 1.261 . S
C171 O180 1.247 . S
C171 O181 1.272 . S
O172 Co168 2.004 . S
O172 C177 1.259 . S
Co173 O174 2.061 . S
Co173 O179 2.052 . S
Co173 O181 2.135 1_554 S
O174 Co173 2.061 . S
O174 C177 1.235 . S
C175 O178 1.238 . S
C175 O179 1.241 . S
C176 O169 1.247 . S
C176 O170 1.261 . S
C177 O172 1.259 . S
C177 O174 1.235 . S
O178 Co168 2.021 . S
O178 C175 1.238 . S
O179 Co173 2.052 . S
O179 C175 1.241 . S
O180 Co168 2.137 1_556 S
O180 C171 1.247 . S
O181 Co168 2.244 1_556 S
O181 C171 1.272 . S
O181 Co173 2.135 1_556 S
Co182 O183 2.216 . S
Co182 O184 2.091 . S
Co182 O186 2.004 . S
Co182 O192 2.021 . S
Co182 O194 2.137 1_554 S
Co182 O195 2.244 . S
O183 Co182 2.216 . S
O183 C190 1.247 . S
O184 Co182 2.091 . S
O184 C190 1.261 . S
C185 O194 1.247 . S
C185 O195 1.272 1_556 S
O186 Co182 2.004 . S
O186 C191 1.259 . S
Co187 O188 2.061 . S
Co187 O193 2.052 . S
Co187 O195 2.135 . S
O188 Co187 2.061 . S
O188 C191 1.235 . S
C189 O192 1.238 . S
C189 O193 1.241 . S
C190 O183 1.247 . S
C190 O184 1.261 . S
C191 O186 1.259 . S
C191 O188 1.235 . S
O192 Co182 2.021 . S
O192 C189 1.238 . S
O193 Co187 2.052 . S
O193 C189 1.241 . S
O194 Co182 2.137 1_556 S
O194 C185 1.247 . S
O195 Co182 2.244 . S
O195 C185 1.272 1_554 S
O195 Co187 2.135 . S
Co196 O197 2.216 . S
Co196 O198 2.091 . S
Co196 O200 2.004 . S
Co196 O206 2.021 . S
Co196 O208 2.137 . S
Co196 O209 2.244 . S
O197 Co196 2.216 . S
O197 C204 1.247 . S
O198 Co196 2.091 . S
O198 C204 1.261 . S
C199 O208 1.247 . S
C199 O209 1.272 . S
O200 Co196 2.004 . S
O200 C205 1.259 . S
Co201 O202 2.061 . S
Co201 O207 2.052 . S
Co201 O209 2.135 . S
O202 Co201 2.061 . S
O202 C205 1.235 . S
C203 O206 1.238 . S
C203 O207 1.241 . S
C204 O197 1.247 . S
C204 O198 1.261 . S
C205 O200 1.259 . S
C205 O202 1.235 . S
O206 Co196 2.021 . S
O206 C203 1.238 . S
O207 Co201 2.052 . S
O207 C203 1.241 . S
O208 Co196 2.137 . S
O208 C199 1.247 . S
O209 Co196 2.244 . S
O209 C199 1.272 . S
O209 Co201 2.135 . S
Co210 O211 2.216 . S
Co210 O212 2.091 . S
Co210 O214 2.004 . S
Co210 O220 2.021 . S
Co210 O222 2.137 . S
Co210 O223 2.244 . S
O211 Co210 2.216 . S
O211 C218 1.247 . S
O212 Co210 2.091 . S
O212 C218 1.261 . S
C213 O222 1.247 . S
C213 O223 1.272 . S
O214 Co210 2.004 . S
O214 C219 1.259 . S
Co215 O216 2.061 . S
Co215 O221 2.052 . S
Co215 O223 2.135 . S
O216 Co215 2.061 . S
O216 C219 1.235 . S
C217 O220 1.238 . S
C217 O221 1.241 . S
C218 O211 1.247 . S
C218 O212 1.261 . S
C219 O214 1.259 . S
C219 O216 1.235 . S
O220 Co210 2.021 . S
O220 C217 1.238 . S
O221 Co215 2.052 . S
O221 C217 1.241 . S
O222 Co210 2.137 . S
O222 C213 1.247 . S
O223 Co210 2.244 . S
O223 C213 1.272 . S
O223 Co215 2.135 . S
Co224 O225 2.216 . S
Co224 O226 2.091 . S
Co224 O228 2.004 . S
Co224 O234 2.021 . S
Co224 O236 2.137 . S
Co224 O237 2.244 . S
O225 Co224 2.216 . S
O225 C232 1.247 . S
O226 Co224 2.091 . S
O226 C232 1.261 . S
C227 O236 1.247 . S
C227 O237 1.272 . S
O228 Co224 2.004 . S
O228 C233 1.259 . S
Co229 O230 2.061 . S
Co229 O235 2.052 . S
Co229 O237 2.135 . S
O230 Co229 2.061 . S
O230 C233 1.235 . S
C231 O234 1.238 . S
C231 O235 1.241 . S
C232 O225 1.247 . S
C232 O226 1.261 . S
C233 O228 1.259 . S
C233 O230 1.235 . S
O234 Co224 2.021 . S
O234 C231 1.238 . S
O235 Co229 2.052 . S
O235 C231 1.241 . S
O236 Co224 2.137 . S
O236 C227 1.247 . S
O237 Co224 2.244 . S
O237 C227 1.272 . S
O237 Co229 2.135 . S
Co238 O239 2.216 . S
Co238 O240 2.091 . S
Co238 O242 2.004 . S
Co238 O248 2.021 . S
Co238 O250 2.137 . S
Co238 O251 2.244 . S
O239 Co238 2.216 . S
O239 C246 1.247 . S
O240 Co238 2.091 . S
O240 C246 1.261 . S
C241 O250 1.247 . S
C241 O251 1.272 . S
O242 Co238 2.004 . S
O242 C247 1.259 . S
Co243 O244 2.061 . S
Co243 O249 2.052 . S
Co243 O251 2.135 . S
O244 Co243 2.061 . S
O244 C247 1.235 . S
C245 O248 1.238 . S
C245 O249 1.241 . S
C246 O239 1.247 . S
C246 O240 1.261 . S
C247 O242 1.259 . S
C247 O244 1.235 . S
O248 Co238 2.021 . S
O248 C245 1.238 . S
O249 Co243 2.052 . S
O249 C245 1.241 . S
O250 Co238 2.137 . S
O250 C241 1.247 . S
O251 Co238 2.244 . S
O251 C241 1.272 . S
O251 Co243 2.135 . S
Co252 O253 2.216 . S
Co252 O254 2.091 . S
Co252 O256 2.004 . S
Co252 O262 2.021 . S
Co252 O264 2.137 . S
Co252 O265 2.244 . S
O253 Co252 2.216 . S
O253 C260 1.247 . S
O254 Co252 2.091 . S
O254 C260 1.261 . S
C255 O264 1.247 . S
C255 O265 1.272 . S
O256 Co252 2.004 . S
O256 C261 1.259 . S
Co257 O258 2.061 . S
Co257 O263 2.052 . S
Co257 O265 2.135 . S
O258 Co257 2.061 . S
O258 C261 1.235 . S
C259 O262 1.238 . S
C259 O263 1.241 . S
C260 O253 1.247 . S
C260 O254 1.261 . S
C261 O256 1.259 . S
C261 O258 1.235 . S
O262 Co252 2.021 . S
O262 C259 1.238 . S
O263 Co257 2.052 . S
O263 C259 1.241 . S
O264 Co252 2.137 . S
O264 C255 1.247 . S
O265 Co252 2.244 . S
O265 C255 1.272 . S
O265 Co257 2.135 . S
Co266 O267 2.216 . S
Co266 O268 2.091 . S
Co266 O270 2.004 . S
Co266 O276 2.021 . S
Co266 O278 2.137 . S
Co266 O279 2.244 . S
O267 Co266 2.216 . S
O267 C274 1.247 . S
O268 Co266 2.091 . S
O268 C274 1.261 . S
C269 O278 1.247 . S
C269 O279 1.272 . S
O270 Co266 2.004 . S
O270 C275 1.259 . S
Co271 O272 2.061 . S
Co271 O277 2.052 . S
Co271 O279 2.135 . S
O272 Co271 2.061 . S
O272 C275 1.235 . S
C273 O276 1.238 . S
C273 O277 1.241 . S
C274 O267 1.247 . S
C274 O268 1.261 . S
C275 O270 1.259 . S
C275 O272 1.235 . S
O276 Co266 2.021 . S
O276 C273 1.238 . S
O277 Co271 2.052 . S
O277 C273 1.241 . S
O278 Co266 2.137 . S
O278 C269 1.247 . S
O279 Co266 2.244 . S
O279 C269 1.272 . S
O279 Co271 2.135 . S
Co280 O281 2.217 1_556 S
Co280 O282 2.083 1_556 S
Co280 O284 2.003 . S
Co280 O290 1.981 1_556 S
Co280 O292 2.179 . S
Co280 O293 2.264 . S
O281 Co280 2.217 1_554 S
O281 C288 1.247 . S
O282 Co280 2.083 1_554 S
O282 C288 1.259 . S
C283 O292 1.247 . S
C283 O293 1.272 . S
O284 Co280 2.003 . S
O284 C289 1.259 . S
Co285 O286 2.061 . S
Co285 O291 2.052 . S
Co285 O293 2.135 1_554 S
O286 Co285 2.061 . S
O286 C289 1.235 1_554 S
C287 O290 1.238 . S
C287 O291 1.241 . S
C288 O281 1.247 . S
C288 O282 1.259 . S
C289 O284 1.259 . S
C289 O286 1.235 1_556 S
O290 Co280 1.981 1_554 S
O290 C287 1.238 . S
O291 Co285 2.052 . S
O291 C287 1.241 . S
O292 Co280 2.179 . S
O292 C283 1.247 . S
O293 Co280 2.264 . S
O293 C283 1.272 . S
O293 Co285 2.135 1_556 S
Co294 O295 2.216 . S
Co294 O296 2.091 . S
Co294 O298 2.004 . S
Co294 O304 2.021 . S
Co294 O306 2.137 . S
Co294 O307 2.244 . S
O295 Co294 2.216 . S
O295 C302 1.247 . S
O296 Co294 2.091 . S
O296 C302 1.261 . S
C297 O306 1.247 . S
C297 O307 1.272 . S
O298 Co294 2.004 . S
O298 C303 1.259 . S
Co299 O300 2.061 . S
Co299 O305 2.052 . S
Co299 O307 2.135 . S
O300 Co299 2.061 . S
O300 C303 1.235 . S
C301 O304 1.238 . S
C301 O305 1.241 . S
C302 O295 1.247 . S
C302 O296 1.261 . S
C303 O298 1.259 . S
C303 O300 1.235 . S
O304 Co294 2.021 . S
O304 C301 1.238 . S
O305 Co299 2.052 . S
O305 C301 1.241 . S
O306 Co294 2.137 . S
O306 C297 1.247 . S
O307 Co294 2.244 . S
O307 C297 1.272 . S
O307 Co299 2.135 . S
Co308 O309 2.216 . S
Co308 O310 2.091 . S
Co308 O312 2.004 . S
Co308 O318 2.021 . S
Co308 O320 2.137 . S
Co308 O321 2.244 . S
O309 Co308 2.216 . S
O309 C316 1.247 . S
O310 Co308 2.091 . S
O310 C316 1.261 . S
C311 O320 1.247 . S
C311 O321 1.272 . S
O312 Co308 2.004 . S
O312 C317 1.259 . S
Co313 O314 2.061 . S
Co313 O319 2.052 . S
Co313 O321 2.135 . S
O314 Co313 2.061 . S
O314 C317 1.235 . S
C315 O318 1.238 . S
C315 O319 1.241 . S
C316 O309 1.247 . S
C316 O310 1.261 . S
C317 O312 1.259 . S
C317 O314 1.235 . S
O318 Co308 2.021 . S
O318 C315 1.238 . S
O319 Co313 2.052 . S
O319 C315 1.241 . S
O320 Co308 2.137 . S
O320 C311 1.247 . S
O321 Co308 2.244 . S
O321 C311 1.272 . S
O321 Co313 2.135 . S
Co322 O323 2.216 . S
Co322 O324 2.091 . S
Co322 O326 2.004 . S
Co322 O332 2.021 . S
Co322 O334 2.137 . S
Co322 O335 2.244 . S
O323 Co322 2.216 . S
O323 C330 1.247 . S
O324 Co322 2.091 . S
O324 C330 1.261 . S
C325 O334 1.247 . S
C325 O335 1.272 . S
O326 Co322 2.004 . S
O326 C331 1.259 . S
Co327 O328 2.061 . S
Co327 O333 2.052 . S
Co327 O335 2.135 . S
O328 Co327 2.061 . S
O328 C331 1.235 . S
C329 O332 1.238 . S
C329 O333 1.241 . S
C330 O323 1.247 . S
C330 O324 1.261 . S
C331 O326 1.259 . S
C331 O328 1.235 . S
O332 Co322 2.021 . S
O332 C329 1.238 . S
O333 Co327 2.052 . S
O333 C329 1.241 . S
O334 Co322 2.137 . S
O334 C325 1.247 . S
O335 Co322 2.244 . S
O335 C325 1.272 . S
O335 Co327 2.135 . S
Gd336 C339 2.818 1_455 S
Gd336 O356 2.376 . S
Gd336 O358 2.447 1_455 S
Gd336 O359 2.506 1_456 S
Gd336 O360 2.434 . S
Gd336 O361 2.717 . S
Gd336 O363 2.396 1_546 S
Gd336 O367 2.328 1_556 S
Gd337 C348 2.818 . S
Gd337 O357 2.395 . S
Gd337 O361 2.327 1_554 S
Gd337 O362 2.377 . S
Gd337 O364 2.448 . S
Gd337 O365 2.506 . S
Gd337 O366 2.435 . S
Gd337 O367 2.717 . S
C338 O356 1.240 1_554 S
C338 O357 1.240 . S
C339 Gd336 2.818 1_655 S
C339 C340 1.510 . S
C339 O358 1.249 . S
C339 O359 1.252 1_556 S
C340 C339 1.510 . S
C340 C341 1.404 . S
C340 C342 1.352 1_556 S
C341 C340 1.404 . S
C341 C345 1.389 . S
C341 H368 0.930 . S
C342 C340 1.352 1_554 S
C342 C344 1.374 1_554 S
C342 H369 0.931 . S
C343 C344 1.359 . S
C343 C345 1.364 . S
C344 C342 1.374 1_556 S
C344 C343 1.359 . S
C344 H370 0.931 1_556 S
C345 C341 1.389 . S
C345 C343 1.364 . S
C345 H371 0.931 . S
C346 O360 1.256 . S
C346 O361 1.257 . S
C347 O362 1.240 1_565 S
C347 O363 1.240 . S
C348 Gd337 2.818 . S
C348 C349 1.510 . S
C348 O364 1.249 . S
C348 O365 1.252 . S
C349 C348 1.510 . S
C349 C350 1.404 . S
C349 C351 1.352 . S
C350 C349 1.404 . S
C350 C354 1.389 . S
C350 H372 0.930 . S
C351 C349 1.352 . S
C351 C353 1.374 1_545 S
C351 H373 0.931 . S
C352 C353 1.359 1_545 S
C352 C354 1.364 . S
C353 C351 1.374 1_565 S
C353 C352 1.359 1_565 S
C353 H374 0.931 . S
C354 C350 1.389 . S
C354 C352 1.364 . S
C354 H375 0.931 . S
C355 O366 1.256 . S
C355 O367 1.257 . S
O356 Gd336 2.376 . S
O356 C338 1.240 1_556 S
O357 Gd337 2.395 . S
O357 C338 1.240 . S
O358 Gd336 2.447 1_655 S
O358 C339 1.249 . S
O359 Gd336 2.506 1_654 S
O359 C339 1.252 1_554 S
O360 Gd336 2.434 . S
O360 C346 1.256 . S
O361 Gd336 2.717 . S
O361 Gd337 2.327 1_556 S
O361 C346 1.257 . S
O362 Gd337 2.377 . S
O362 C347 1.240 1_545 S
O363 Gd336 2.396 1_564 S
O363 C347 1.240 . S
O364 Gd337 2.448 . S
O364 C348 1.249 . S
O365 Gd337 2.506 . S
O365 C348 1.252 . S
O366 Gd337 2.435 . S
O366 C355 1.256 . S
O367 Gd336 2.328 1_554 S
O367 Gd337 2.717 . S
O367 C355 1.257 . S
H368 C341 0.930 . S
H369 C342 0.931 . S
H370 C344 0.931 1_554 S
H371 C345 0.931 . S
H372 C350 0.930 . S
H373 C351 0.931 . S
H374 C353 0.931 . S
H375 C354 0.931 . S
Gd376 C379 2.818 . S
Gd376 O396 2.377 . S
Gd376 O398 2.448 . S
Gd376 O399 2.506 . S
Gd376 O400 2.435 . S
Gd376 O401 2.717 . S
Gd376 O403 2.395 . S
Gd376 O407 2.327 . S
Gd377 C388 2.818 . S
Gd377 O397 2.395 . S
Gd377 O401 2.327 . S
Gd377 O402 2.377 . S
Gd377 O404 2.448 . S
Gd377 O405 2.506 . S
Gd377 O406 2.435 . S
Gd377 O407 2.717 . S
C378 O396 1.240 . S
C378 O397 1.240 . S
C379 Gd376 2.818 . S
C379 C380 1.510 . S
C379 O398 1.249 . S
C379 O399 1.252 . S
C380 C379 1.510 . S
C380 C381 1.404 . S
C380 C382 1.352 . S
C381 C380 1.404 . S
C381 C385 1.389 . S
C381 H408 0.930 . S
C382 C380 1.352 . S
C382 C384 1.374 . S
C382 H409 0.931 . S
C383 C384 1.359 . S
C383 C385 1.364 . S
C384 C382 1.374 . S
C384 C383 1.359 . S
C384 H410 0.931 . S
C385 C381 1.389 . S
C385 C383 1.364 . S
C385 H411 0.931 . S
C386 O400 1.256 . S
C386 O401 1.257 . S
C387 O402 1.240 . S
C387 O403 1.240 . S
C388 Gd377 2.818 . S
C388 C389 1.510 . S
C388 O404 1.249 . S
C388 O405 1.252 . S
C389 C388 1.510 . S
C389 C390 1.404 . S
C389 C391 1.352 . S
C390 C389 1.404 . S
C390 C394 1.389 . S
C390 H412 0.930 . S
C391 C389 1.352 . S
C391 C393 1.374 . S
C391 H413 0.931 . S
C392 C393 1.359 . S
C392 C394 1.364 . S
C393 C391 1.374 . S
C393 C392 1.359 . S
C393 H414 0.931 . S
C394 C390 1.389 . S
C394 C392 1.364 . S
C394 H415 0.931 . S
C395 O406 1.256 . S
C395 O407 1.257 . S
O396 Gd376 2.377 . S
O396 C378 1.240 . S
O397 Gd377 2.395 . S
O397 C378 1.240 . S
O398 Gd376 2.448 . S
O398 C379 1.249 . S
O399 Gd376 2.506 . S
O399 C379 1.252 . S
O400 Gd376 2.435 . S
O400 C386 1.256 . S
O401 Gd376 2.717 . S
O401 Gd377 2.327 . S
O401 C386 1.257 . S
O402 Gd377 2.377 . S
O402 C387 1.240 . S
O403 Gd376 2.395 . S
O403 C387 1.240 . S
O404 Gd377 2.448 . S
O404 C388 1.249 . S
O405 Gd377 2.506 . S
O405 C388 1.252 . S
O406 Gd377 2.435 . S
O406 C395 1.256 . S
O407 Gd376 2.327 . S
O407 Gd377 2.717 . S
O407 C395 1.257 . S
H408 C381 0.930 . S
H409 C382 0.931 . S
H410 C384 0.931 . S
H411 C385 0.931 . S
H412 C390 0.930 . S
H413 C391 0.931 . S
H414 C393 0.931 . S
H415 C394 0.931 . S
Gd416 C419 2.818 . S
Gd416 O436 2.377 1_545 S
Gd416 O438 2.448 . S
Gd416 O439 2.506 . S
Gd416 O440 2.435 . S
Gd416 O441 2.717 . S
Gd416 O443 2.395 . S
Gd416 O447 2.327 . S
Gd417 C428 2.818 . S
Gd417 O437 2.395 1_545 S
Gd417 O441 2.327 . S
Gd417 O442 2.377 . S
Gd417 O444 2.448 . S
Gd417 O445 2.506 . S
Gd417 O446 2.435 . S
Gd417 O447 2.717 . S
C418 O436 1.240 . S
C418 O437 1.240 . S
C419 Gd416 2.818 . S
C419 C420 1.510 1_545 S
C419 O438 1.249 . S
C419 O439 1.252 . S
C420 C419 1.510 1_565 S
C420 C421 1.404 . S
C420 C422 1.352 . S
C421 C420 1.404 . S
C421 C425 1.389 . S
C421 H448 0.938 . S
C422 C420 1.352 . S
C422 C424 1.374 . S
C422 H449 0.931 . S
C423 C424 1.359 . S
C423 C425 1.364 . S
C424 C422 1.374 . S
C424 C423 1.359 . S
C424 H450 0.931 . S
C425 C421 1.389 . S
C425 C423 1.364 . S
C425 H451 0.931 . S
C426 O440 1.256 . S
C426 O441 1.257 . S
C427 O442 1.240 . S
C427 O443 1.240 . S
C428 Gd417 2.818 . S
C428 C429 1.510 . S
C428 O444 1.249 . S
C428 O445 1.252 . S
C429 C428 1.510 . S
C429 C430 1.404 . S
C429 C431 1.352 . S
C430 C429 1.404 . S
C430 C434 1.389 . S
C430 H452 0.930 . S
C431 C429 1.352 . S
C431 C433 1.374 . S
C431 H453 0.931 . S
C432 C433 1.359 . S
C432 C434 1.364 . S
C433 C431 1.374 . S
C433 C432 1.359 . S
C433 H454 0.931 . S
C434 C430 1.389 . S
C434 C432 1.364 . S
C434 H455 0.931 . S
C435 O446 1.256 . S
C435 O447 1.257 . S
O436 Gd416 2.377 1_565 S
O436 C418 1.240 . S
O437 Gd417 2.395 1_565 S
O437 C418 1.240 . S
O438 Gd416 2.448 . S
O438 C419 1.249 . S
O439 Gd416 2.506 . S
O439 C419 1.252 . S
O440 Gd416 2.435 . S
O440 C426 1.256 . S
O441 Gd416 2.717 . S
O441 Gd417 2.327 . S
O441 C426 1.257 . S
O442 Gd417 2.377 . S
O442 C427 1.240 . S
O443 Gd416 2.395 . S
O443 C427 1.240 . S
O444 Gd417 2.448 . S
O444 C428 1.249 . S
O445 Gd417 2.506 . S
O445 C428 1.252 . S
O446 Gd417 2.435 . S
O446 C435 1.256 . S
O447 Gd416 2.327 . S
O447 Gd417 2.717 . S
O447 C435 1.257 . S
H448 C421 0.938 . S
H449 C422 0.931 . S
H450 C424 0.931 . S
H451 C425 0.931 . S
H452 C430 0.930 . S
H453 C431 0.931 . S
H454 C433 0.931 . S
H455 C434 0.931 . S
Gd456 C459 2.818 . S
Gd456 O476 2.377 . S
Gd456 O478 2.448 . S
Gd456 O479 2.506 . S
Gd456 O480 2.435 . S
Gd456 O481 2.717 . S
Gd456 O483 2.395 . S
Gd456 O487 2.327 . S
Gd457 C468 2.818 . S
Gd457 O477 2.395 . S
Gd457 O481 2.327 . S
Gd457 O482 2.377 . S
Gd457 O484 2.448 . S
Gd457 O485 2.506 . S
Gd457 O486 2.435 . S
Gd457 O487 2.717 . S
C458 O476 1.240 . S
C458 O477 1.240 . S
C459 Gd456 2.818 . S
C459 C460 1.510 . S
C459 O478 1.249 . S
C459 O479 1.252 . S
C460 C459 1.510 . S
C460 C461 1.404 . S
C460 C462 1.352 . S
C461 C460 1.404 . S
C461 C465 1.389 . S
C461 H488 0.930 . S
C462 C460 1.352 . S
C462 C464 1.374 . S
C462 H489 0.931 . S
C463 C464 1.359 . S
C463 C465 1.364 . S
C464 C462 1.374 . S
C464 C463 1.359 . S
C464 H490 0.931 . S
C465 C461 1.389 . S
C465 C463 1.364 . S
C465 H491 0.931 . S
C466 O480 1.256 . S
C466 O481 1.257 . S
C467 O482 1.240 . S
C467 O483 1.240 . S
C468 Gd457 2.818 . S
C468 C469 1.510 . S
C468 O484 1.249 . S
C468 O485 1.252 . S
C469 C468 1.510 . S
C469 C470 1.404 . S
C469 C471 1.352 . S
C470 C469 1.404 . S
C470 C474 1.389 . S
C470 H492 0.930 . S
C471 C469 1.352 . S
C471 C473 1.374 . S
C471 H493 0.931 . S
C472 C473 1.359 . S
C472 C474 1.364 . S
C473 C471 1.374 . S
C473 C472 1.359 . S
C473 H494 0.931 . S
C474 C470 1.389 . S
C474 C472 1.364 . S
C474 H495 0.931 . S
C475 O486 1.256 . S
C475 O487 1.257 . S
O476 Gd456 2.377 . S
O476 C458 1.240 . S
O477 Gd457 2.395 . S
O477 C458 1.240 . S
O478 Gd456 2.448 . S
O478 C459 1.249 . S
O479 Gd456 2.506 . S
O479 C459 1.252 . S
O480 Gd456 2.435 . S
O480 C466 1.256 . S
O481 Gd456 2.717 . S
O481 Gd457 2.327 . S
O481 C466 1.257 . S
O482 Gd457 2.377 . S
O482 C467 1.240 . S
O483 Gd456 2.395 . S
O483 C467 1.240 . S
O484 Gd457 2.448 . S
O484 C468 1.249 . S
O485 Gd457 2.506 . S
O485 C468 1.252 . S
O486 Gd457 2.435 . S
O486 C475 1.256 . S
O487 Gd456 2.327 . S
O487 Gd457 2.717 . S
O487 C475 1.257 . S
H488 C461 0.930 . S
H489 C462 0.931 . S
H490 C464 0.931 . S
H491 C465 0.931 . S
H492 C470 0.930 . S
H493 C471 0.931 . S
H494 C473 0.931 . S
H495 C474 0.931 . S
Gd496 C499 2.818 . S
Gd496 O516 2.377 . S
Gd496 O518 2.448 . S
Gd496 O519 2.506 . S
Gd496 O520 2.435 . S
Gd496 O521 2.717 . S
Gd496 O523 2.395 . S
Gd496 O527 2.327 . S
Gd497 C508 2.818 . S
Gd497 O517 2.395 1_565 S
Gd497 O521 2.327 1_565 S
Gd497 O522 2.377 1_565 S
Gd497 O524 2.448 . S
Gd497 O525 2.506 . S
Gd497 O526 2.435 1_565 S
Gd497 O527 2.717 1_565 S
C498 O516 1.240 . S
C498 O517 1.240 . S
C499 Gd496 2.818 . S
C499 C500 1.510 . S
C499 O518 1.249 . S
C499 O519 1.252 . S
C500 C499 1.510 . S
C500 C501 1.404 . S
C500 C502 1.352 . S
C501 C500 1.404 . S
C501 C505 1.389 . S
C501 H528 0.930 . S
C502 C500 1.352 . S
C502 C504 1.374 . S
C502 H529 0.931 . S
C503 C504 1.359 . S
C503 C505 1.364 . S
C504 C502 1.374 . S
C504 C503 1.359 . S
C504 H530 0.931 . S
C505 C501 1.389 . S
C505 C503 1.364 . S
C505 H531 0.931 . S
C506 O520 1.256 . S
C506 O521 1.257 . S
C507 O522 1.240 . S
C507 O523 1.240 . S
C508 Gd497 2.818 . S
C508 C509 1.510 . S
C508 O524 1.249 . S
C508 O525 1.252 . S
C509 C508 1.510 . S
C509 C510 1.404 . S
C509 C511 1.352 . S
C510 C509 1.404 . S
C510 C514 1.389 . S
C510 H532 0.930 . S
C511 C509 1.352 . S
C511 C513 1.374 . S
C511 H533 0.931 . S
C512 C513 1.359 . S
C512 C514 1.364 . S
C513 C511 1.374 . S
C513 C512 1.359 . S
C513 H534 0.931 . S
C514 C510 1.389 . S
C514 C512 1.364 . S
C514 H535 0.931 . S
C515 O526 1.256 . S
C515 O527 1.257 . S
O516 Gd496 2.377 . S
O516 C498 1.240 . S
O517 Gd497 2.395 1_545 S
O517 C498 1.240 . S
O518 Gd496 2.448 . S
O518 C499 1.249 . S
O519 Gd496 2.506 . S
O519 C499 1.252 . S
O520 Gd496 2.435 . S
O520 C506 1.256 . S
O521 Gd496 2.717 . S
O521 Gd497 2.327 1_545 S
O521 C506 1.257 . S
O522 Gd497 2.377 1_545 S
O522 C507 1.240 . S
O523 Gd496 2.395 . S
O523 C507 1.240 . S
O524 Gd497 2.448 . S
O524 C508 1.249 . S
O525 Gd497 2.506 . S
O525 C508 1.252 . S
O526 Gd497 2.435 1_545 S
O526 C515 1.256 . S
O527 Gd496 2.327 . S
O527 Gd497 2.717 1_545 S
O527 C515 1.257 . S
H528 C501 0.930 . S
H529 C502 0.931 . S
H530 C504 0.931 . S
H531 C505 0.931 . S
H532 C510 0.930 . S
H533 C511 0.931 . S
H534 C513 0.931 . S
H535 C514 0.931 . S
Gd536 C539 2.818 . S
Gd536 O556 2.377 . S
Gd536 O558 2.448 . S
Gd536 O559 2.506 . S
Gd536 O560 2.435 . S
Gd536 O561 2.717 . S
Gd536 O563 2.395 . S
Gd536 O567 2.327 . S
Gd537 C548 2.818 . S
Gd537 O557 2.395 . S
Gd537 O561 2.327 . S
Gd537 O562 2.377 . S
Gd537 O564 2.448 . S
Gd537 O565 2.506 . S
Gd537 O566 2.435 . S
Gd537 O567 2.717 . S
C538 O556 1.240 . S
C538 O557 1.240 . S
C539 Gd536 2.818 . S
C539 C540 1.510 . S
C539 O558 1.249 . S
C539 O559 1.252 . S
C540 C539 1.510 . S
C540 C541 1.404 . S
C540 C542 1.352 . S
C541 C540 1.404 . S
C541 C545 1.389 . S
C541 H568 0.930 . S
C542 C540 1.352 . S
C542 C544 1.374 . S
C542 H569 0.931 . S
C543 C544 1.359 . S
C543 C545 1.364 . S
C544 C542 1.374 . S
C544 C543 1.359 . S
C544 H570 0.931 . S
C545 C541 1.389 . S
C545 C543 1.364 . S
C545 H571 0.931 . S
C546 O560 1.256 . S
C546 O561 1.257 . S
C547 O562 1.240 . S
C547 O563 1.240 . S
C548 Gd537 2.818 . S
C548 C549 1.510 . S
C548 O564 1.249 . S
C548 O565 1.252 . S
C549 C548 1.510 . S
C549 C550 1.404 . S
C549 C551 1.352 . S
C550 C549 1.404 . S
C550 C554 1.389 . S
C550 H572 0.930 . S
C551 C549 1.352 . S
C551 C553 1.374 . S
C551 H573 0.931 . S
C552 C553 1.359 . S
C552 C554 1.364 . S
C553 C551 1.374 . S
C553 C552 1.359 . S
C553 H574 0.931 . S
C554 C550 1.389 . S
C554 C552 1.364 . S
C554 H575 0.931 . S
C555 O566 1.256 . S
C555 O567 1.257 . S
O556 Gd536 2.377 . S
O556 C538 1.240 . S
O557 Gd537 2.395 . S
O557 C538 1.240 . S
O558 Gd536 2.448 . S
O558 C539 1.249 . S
O559 Gd536 2.506 . S
O559 C539 1.252 . S
O560 Gd536 2.435 . S
O560 C546 1.256 . S
O561 Gd536 2.717 . S
O561 Gd537 2.327 . S
O561 C546 1.257 . S
O562 Gd537 2.377 . S
O562 C547 1.240 . S
O563 Gd536 2.395 . S
O563 C547 1.240 . S
O564 Gd537 2.448 . S
O564 C548 1.249 . S
O565 Gd537 2.506 . S
O565 C548 1.252 . S
O566 Gd537 2.435 . S
O566 C555 1.256 . S
O567 Gd536 2.327 . S
O567 Gd537 2.717 . S
O567 C555 1.257 . S
H568 C541 0.930 . S
H569 C542 0.931 . S
H570 C544 0.931 . S
H571 C545 0.931 . S
H572 C550 0.930 . S
H573 C551 0.931 . S
H574 C553 0.931 . S
H575 C554 0.931 . S
Gd576 C579 2.818 . S
Gd576 O596 2.377 . S
Gd576 O598 2.437 1_545 S
Gd576 O599 2.506 . S
Gd576 O600 2.435 1_545 S
Gd576 O601 2.717 1_554 S
Gd576 O603 2.395 . S
Gd576 O607 2.327 . S
Gd577 C588 2.818 . S
Gd577 O597 2.395 . S
Gd577 O601 2.327 . S
Gd577 O602 2.377 . S
Gd577 O604 2.448 . S
Gd577 O605 2.506 . S
Gd577 O606 2.435 1_556 S
Gd577 O607 2.717 1_556 S
C578 O596 1.240 . S
C578 O597 1.240 1_554 S
C579 Gd576 2.818 . S
C579 C580 1.510 . S
C579 O598 1.237 1_545 S
C579 O599 1.252 . S
C580 C579 1.510 . S
C580 C581 1.404 1_545 S
C580 C582 1.352 . S
C581 C580 1.404 1_565 S
C581 C585 1.389 . S
C581 H608 0.930 . S
C582 C580 1.352 . S
C582 C584 1.374 . S
C582 H609 0.931 . S
C583 C584 1.359 1_565 S
C583 C585 1.364 . S
C584 C582 1.374 . S
C584 C583 1.359 1_545 S
C584 H610 0.931 . S
C585 C581 1.389 . S
C585 C583 1.364 . S
C585 H611 0.931 . S
C586 O600 1.256 1_556 S
C586 O601 1.257 1_565 S
C587 O602 1.240 1_554 S
C587 O603 1.240 . S
C588 Gd577 2.818 . S
C588 C589 1.510 . S
C588 O604 1.249 . S
C588 O605 1.252 . S
C589 C588 1.510 . S
C589 C590 1.404 . S
C589 C591 1.352 . S
C590 C589 1.404 . S
C590 C594 1.389 . S
C590 H612 0.930 . S
C591 C589 1.352 . S
C591 C593 1.374 . S
C591 H613 0.931 . S
C592 C593 1.359 . S
C592 C594 1.364 . S
C593 C591 1.374 . S
C593 C592 1.359 . S
C593 H614 0.931 . S
C594 C590 1.389 . S
C594 C592 1.364 . S
C594 H615 0.931 . S
C595 O606 1.256 . S
C595 O607 1.257 . S
O596 Gd576 2.377 . S
O596 C578 1.240 . S
O597 Gd577 2.395 . S
O597 C578 1.240 1_556 S
O598 Gd576 2.437 1_565 S
O598 C579 1.237 1_565 S
O599 Gd576 2.506 . S
O599 C579 1.252 . S
O600 Gd576 2.435 1_565 S
O600 C586 1.256 1_554 S
O601 Gd576 2.717 1_556 S
O601 Gd577 2.327 . S
O601 C586 1.257 1_545 S
O602 Gd577 2.377 . S
O602 C587 1.240 1_556 S
O603 Gd576 2.395 . S
O603 C587 1.240 . S
O604 Gd577 2.448 . S
O604 C588 1.249 . S
O605 Gd577 2.506 . S
O605 C588 1.252 . S
O606 Gd577 2.435 1_554 S
O606 C595 1.256 . S
O607 Gd576 2.327 . S
O607 Gd577 2.717 1_554 S
O607 C595 1.257 . S
H608 C581 0.930 . S
H609 C582 0.931 . S
H610 C584 0.931 . S
H611 C585 0.931 . S
H612 C590 0.930 . S
H613 C591 0.931 . S
H614 C593 0.931 . S
H615 C594 0.931 . S
Gd616 C619 2.818 . S
Gd616 O636 2.377 . S
Gd616 O638 2.448 . S
Gd616 O639 2.506 . S
Gd616 O640 2.435 . S
Gd616 O641 2.717 . S
Gd616 O643 2.395 . S
Gd616 O647 2.327 . S
Gd617 C628 2.818 . S
Gd617 O637 2.395 . S
Gd617 O641 2.327 . S
Gd617 O642 2.377 . S
Gd617 O644 2.448 . S
Gd617 O645 2.506 . S
Gd617 O646 2.435 . S
Gd617 O647 2.717 . S
C618 O636 1.240 . S
C618 O637 1.240 . S
C619 Gd616 2.818 . S
C619 C620 1.510 . S
C619 O638 1.249 . S
C619 O639 1.252 . S
C620 C619 1.510 . S
C620 C621 1.404 . S
C620 C622 1.352 . S
C621 C620 1.404 . S
C621 C625 1.389 . S
C621 H648 0.930 . S
C622 C620 1.352 . S
C622 C624 1.374 . S
C622 H649 0.931 . S
C623 C624 1.359 . S
C623 C625 1.364 . S
C624 C622 1.374 . S
C624 C623 1.359 . S
C624 H650 0.931 . S
C625 C621 1.389 . S
C625 C623 1.364 . S
C625 H651 0.931 . S
C626 O640 1.256 . S
C626 O641 1.257 . S
C627 O642 1.240 . S
C627 O643 1.240 . S
C628 Gd617 2.818 . S
C628 C629 1.510 . S
C628 O644 1.249 . S
C628 O645 1.252 . S
C629 C628 1.510 . S
C629 C630 1.404 . S
C629 C631 1.352 . S
C630 C629 1.404 . S
C630 C634 1.389 . S
C630 H652 0.930 . S
C631 C629 1.352 . S
C631 C633 1.374 . S
C631 H653 0.931 . S
C632 C633 1.359 . S
C632 C634 1.364 . S
C633 C631 1.374 . S
C633 C632 1.359 . S
C633 H654 0.931 . S
C634 C630 1.389 . S
C634 C632 1.364 . S
C634 H655 0.931 . S
C635 O646 1.256 . S
C635 O647 1.257 . S
O636 Gd616 2.377 . S
O636 C618 1.240 . S
O637 Gd617 2.395 . S
O637 C618 1.240 . S
O638 Gd616 2.448 . S
O638 C619 1.249 . S
O639 Gd616 2.506 . S
O639 C619 1.252 . S
O640 Gd616 2.435 . S
O640 C626 1.256 . S
O641 Gd616 2.717 . S
O641 Gd617 2.327 . S
O641 C626 1.257 . S
O642 Gd617 2.377 . S
O642 C627 1.240 . S
O643 Gd616 2.395 . S
O643 C627 1.240 . S
O644 Gd617 2.448 . S
O644 C628 1.249 . S
O645 Gd617 2.506 . S
O645 C628 1.252 . S
O646 Gd617 2.435 . S
O646 C635 1.256 . S
O647 Gd616 2.327 . S
O647 Gd617 2.717 . S
O647 C635 1.257 . S
H648 C621 0.930 . S
H649 C622 0.931 . S
H650 C624 0.931 . S
H651 C625 0.931 . S
H652 C630 0.930 . S
H653 C631 0.931 . S
H654 C633 0.931 . S
H655 C634 0.931 . S
Gd656 C659 2.845 . S
Gd656 O676 2.377 1_554 S
Gd656 O678 2.448 . S
Gd656 O679 2.502 1_554 S
Gd656 O680 2.435 . S
Gd656 O681 2.717 . S
Gd656 O683 2.395 . S
Gd656 O687 2.327 . S
Gd657 C668 2.799 1_556 S
Gd657 O677 2.423 . S
Gd657 O681 2.315 1_556 S
Gd657 O682 2.347 1_556 S
Gd657 O684 2.437 1_556 S
Gd657 O685 2.483 1_556 S
Gd657 O686 2.435 . S
Gd657 O687 2.720 1_556 S
C658 O676 1.240 . S
C658 O677 1.240 . S
C659 Gd656 2.845 . S
C659 C660 1.484 1_554 S
C659 O678 1.279 . S
C659 O679 1.249 1_554 S
C660 C659 1.484 1_556 S
C660 C661 1.404 . S
C660 C662 1.352 . S
C661 C660 1.404 . S
C661 C665 1.389 . S
C661 H688 0.930 1_556 S
C662 C660 1.352 . S
C662 C664 1.374 . S
C662 H689 0.931 . S
C663 C664 1.359 . S
C663 C665 1.364 . S
C664 C662 1.374 . S
C664 C663 1.359 . S
C664 H690 0.931 . S
C665 C661 1.389 . S
C665 C663 1.364 . S
C665 H691 0.931 . S
C666 O680 1.256 . S
C666 O681 1.257 . S
C667 O682 1.240 . S
C667 O683 1.240 . S
C668 Gd657 2.799 1_554 S
C668 C669 1.510 . S
C668 O684 1.249 . S
C668 O685 1.252 . S
C669 C668 1.510 . S
C669 C670 1.404 . S
C669 C671 1.352 . S
C670 C669 1.404 . S
C670 C674 1.389 . S
C670 H692 0.930 . S
C671 C669 1.352 . S
C671 C673 1.374 . S
C671 H693 0.931 . S
C672 C673 1.359 . S
C672 C674 1.364 . S
C673 C671 1.374 . S
C673 C672 1.359 . S
C673 H694 0.931 . S
C674 C670 1.389 . S
C674 C672 1.364 . S
C674 H695 0.931 . S
C675 O686 1.256 1_554 S
C675 O687 1.257 . S
O676 Gd656 2.377 1_556 S
O676 C658 1.240 . S
O677 Gd657 2.423 . S
O677 C658 1.240 . S
O678 Gd656 2.448 . S
O678 C659 1.279 . S
O679 Gd656 2.502 1_556 S
O679 C659 1.249 1_556 S
O680 Gd656 2.435 . S
O680 C666 1.256 . S
O681 Gd656 2.717 . S
O681 Gd657 2.315 1_554 S
O681 C666 1.257 . S
O682 Gd657 2.347 1_554 S
O682 C667 1.240 . S
O683 Gd656 2.395 . S
O683 C667 1.240 . S
O684 Gd657 2.437 1_554 S
O684 C668 1.249 . S
O685 Gd657 2.483 1_554 S
O685 C668 1.252 . S
O686 Gd657 2.435 . S
O686 C675 1.256 1_556 S
O687 Gd656 2.327 . S
O687 Gd657 2.720 1_554 S
O687 C675 1.257 . S
H688 C661 0.930 1_554 S
H689 C662 0.931 . S
H690 C664 0.931 . S
H691 C665 0.931 . S
H692 C670 0.930 . S
H693 C671 0.931 . S
H694 C673 0.931 . S
H695 C674 0.931 . S
Gd696 C699 2.818 . S
Gd696 O716 2.377 . S
Gd696 O718 2.448 . S
Gd696 O719 2.506 . S
Gd696 O720 2.435 . S
Gd696 O721 2.717 . S
Gd696 O723 2.395 . S
Gd696 O727 2.327 . S
Gd697 C708 2.818 . S
Gd697 O717 2.395 . S
Gd697 O721 2.327 . S
Gd697 O722 2.377 . S
Gd697 O724 2.448 . S
Gd697 O725 2.506 . S
Gd697 O726 2.435 . S
Gd697 O727 2.717 . S
C698 O716 1.240 . S
C698 O717 1.240 . S
C699 Gd696 2.818 . S
C699 C700 1.510 . S
C699 O718 1.249 . S
C699 O719 1.252 . S
C700 C699 1.510 . S
C700 C701 1.404 . S
C700 C702 1.352 . S
C701 C700 1.404 . S
C701 C705 1.389 . S
C701 H728 0.930 . S
C702 C700 1.352 . S
C702 C704 1.374 . S
C702 H729 0.931 . S
C703 C704 1.359 . S
C703 C705 1.364 . S
C704 C702 1.374 . S
C704 C703 1.359 . S
C704 H730 0.931 . S
C705 C701 1.389 . S
C705 C703 1.364 . S
C705 H731 0.931 . S
C706 O720 1.256 . S
C706 O721 1.257 . S
C707 O722 1.240 . S
C707 O723 1.240 . S
C708 Gd697 2.818 . S
C708 C709 1.510 . S
C708 O724 1.249 . S
C708 O725 1.252 . S
C709 C708 1.510 . S
C709 C710 1.404 . S
C709 C711 1.352 . S
C710 C709 1.404 . S
C710 C714 1.389 . S
C710 H732 0.930 . S
C711 C709 1.352 . S
C711 C713 1.374 . S
C711 H733 0.931 . S
C712 C713 1.359 . S
C712 C714 1.364 . S
C713 C711 1.374 . S
C713 C712 1.359 . S
C713 H734 0.931 . S
C714 C710 1.389 . S
C714 C712 1.364 . S
C714 H735 0.931 . S
C715 O726 1.256 . S
C715 O727 1.257 . S
O716 Gd696 2.377 . S
O716 C698 1.240 . S
O717 Gd697 2.395 . S
O717 C698 1.240 . S
O718 Gd696 2.448 . S
O718 C699 1.249 . S
O719 Gd696 2.506 . S
O719 C699 1.252 . S
O720 Gd696 2.435 . S
O720 C706 1.256 . S
O721 Gd696 2.717 . S
O721 Gd697 2.327 . S
O721 C706 1.257 . S
O722 Gd697 2.377 . S
O722 C707 1.240 . S
O723 Gd696 2.395 . S
O723 C707 1.240 . S
O724 Gd697 2.448 . S
O724 C708 1.249 . S
O725 Gd697 2.506 . S
O725 C708 1.252 . S
O726 Gd697 2.435 . S
O726 C715 1.256 . S
O727 Gd696 2.327 . S
O727 Gd697 2.717 . S
O727 C715 1.257 . S
H728 C701 0.930 . S
H729 C702 0.931 . S
H730 C704 0.931 . S
H731 C705 0.931 . S
H732 C710 0.930 . S
H733 C711 0.931 . S
H734 C713 0.931 . S
H735 C714 0.931 . S
Gd736 C739 2.818 . S
Gd736 O756 2.377 . S
Gd736 O758 2.448 . S
Gd736 O759 2.506 . S
Gd736 O760 2.435 . S
Gd736 O761 2.717 . S
Gd736 O763 2.395 . S
Gd736 O767 2.327 . S
Gd737 C748 2.818 . S
Gd737 O757 2.395 . S
Gd737 O761 2.327 . S
Gd737 O762 2.377 . S
Gd737 O764 2.448 . S
Gd737 O765 2.506 . S
Gd737 O766 2.435 . S
Gd737 O767 2.717 . S
C738 O756 1.240 . S
C738 O757 1.240 . S
C739 Gd736 2.818 . S
C739 C740 1.510 . S
C739 O758 1.249 . S
C739 O759 1.252 . S
C740 C739 1.510 . S
C740 C741 1.404 . S
C740 C742 1.315 1_455 S
C741 C740 1.404 . S
C741 C745 1.389 . S
C741 H768 0.930 . S
C742 C740 1.315 1_655 S
C742 C744 1.401 . S
C742 H769 0.943 . S
C743 C744 1.359 . S
C743 C745 1.364 1_655 S
C744 C742 1.401 . S
C744 C743 1.359 . S
C744 H770 0.931 . S
C745 C741 1.389 . S
C745 C743 1.364 1_455 S
C745 H771 0.931 . S
C746 O760 1.256 . S
C746 O761 1.257 . S
C747 O762 1.240 . S
C747 O763 1.240 . S
C748 Gd737 2.818 . S
C748 C749 1.510 . S
C748 O764 1.249 . S
C748 O765 1.252 . S
C749 C748 1.510 . S
C749 C750 1.404 . S
C749 C751 1.352 . S
C750 C749 1.404 . S
C750 C754 1.389 . S
C750 H772 0.930 . S
C751 C749 1.352 . S
C751 C753 1.374 . S
C751 H773 0.931 . S
C752 C753 1.359 . S
C752 C754 1.364 . S
C753 C751 1.374 . S
C753 C752 1.359 . S
C753 H774 0.931 . S
C754 C750 1.389 . S
C754 C752 1.364 . S
C754 H775 0.931 . S
C755 O766 1.256 . S
C755 O767 1.257 . S
O756 Gd736 2.377 . S
O756 C738 1.240 . S
O757 Gd737 2.395 . S
O757 C738 1.240 . S
O758 Gd736 2.448 . S
O758 C739 1.249 . S
O759 Gd736 2.506 . S
O759 C739 1.252 . S
O760 Gd736 2.435 . S
O760 C746 1.256 . S
O761 Gd736 2.717 . S
O761 Gd737 2.327 . S
O761 C746 1.257 . S
O762 Gd737 2.377 . S
O762 C747 1.240 . S
O763 Gd736 2.395 . S
O763 C747 1.240 . S
O764 Gd737 2.448 . S
O764 C748 1.249 . S
O765 Gd737 2.506 . S
O765 C748 1.252 . S
O766 Gd737 2.435 . S
O766 C755 1.256 . S
O767 Gd736 2.327 . S
O767 Gd737 2.717 . S
O767 C755 1.257 . S
H768 C741 0.930 . S
H769 C742 0.943 . S
H770 C744 0.931 . S
H771 C745 0.931 . S
H772 C750 0.930 . S
H773 C751 0.931 . S
H774 C753 0.931 . S
H775 C754 0.931 . S
Gd776 C779 2.818 . S
Gd776 O796 2.377 . S
Gd776 O798 2.448 . S
Gd776 O799 2.506 . S
Gd776 O800 2.435 . S
Gd776 O801 2.717 . S
Gd776 O803 2.395 . S
Gd776 O807 2.327 . S
Gd777 C788 2.818 . S
Gd777 O797 2.395 . S
Gd777 O801 2.327 . S
Gd777 O802 2.377 . S
Gd777 O804 2.448 . S
Gd777 O805 2.506 . S
Gd777 O806 2.435 . S
Gd777 O807 2.717 . S
C778 O796 1.240 . S
C778 O797 1.240 . S
C779 Gd776 2.818 . S
C779 C780 1.510 . S
C779 O798 1.249 . S
C779 O799 1.252 . S
C780 C779 1.510 . S
C780 C781 1.404 . S
C780 C782 1.352 . S
C781 C780 1.404 . S
C781 C785 1.389 . S
C781 H808 0.930 . S
C782 C780 1.352 . S
C782 C784 1.374 . S
C782 H809 0.931 . S
C783 C784 1.359 . S
C783 C785 1.364 . S
C784 C782 1.374 . S
C784 C783 1.359 . S
C784 H810 0.931 . S
C785 C781 1.389 . S
C785 C783 1.364 . S
C785 H811 0.931 . S
C786 O800 1.256 . S
C786 O801 1.257 . S
C787 O802 1.240 . S
C787 O803 1.240 . S
C788 Gd777 2.818 . S
C788 C789 1.510 . S
C788 O804 1.249 . S
C788 O805 1.252 . S
C789 C788 1.510 . S
C789 C790 1.404 . S
C789 C791 1.352 . S
C790 C789 1.404 . S
C790 C794 1.389 . S
C790 H812 0.930 . S
C791 C789 1.352 . S
C791 C793 1.374 . S
C791 H813 0.931 . S
C792 C793 1.359 . S
C792 C794 1.364 . S
C793 C791 1.374 . S
C793 C792 1.359 . S
C793 H814 0.931 . S
C794 C790 1.389 . S
C794 C792 1.364 . S
C794 H815 0.931 . S
C795 O806 1.256 . S
C795 O807 1.257 . S
O796 Gd776 2.377 . S
O796 C778 1.240 . S
O797 Gd777 2.395 . S
O797 C778 1.240 . S
O798 Gd776 2.448 . S
O798 C779 1.249 . S
O799 Gd776 2.506 . S
O799 C779 1.252 . S
O800 Gd776 2.435 . S
O800 C786 1.256 . S
O801 Gd776 2.717 . S
O801 Gd777 2.327 . S
O801 C786 1.257 . S
O802 Gd777 2.377 . S
O802 C787 1.240 . S
O803 Gd776 2.395 . S
O803 C787 1.240 . S
O804 Gd777 2.448 . S
O804 C788 1.249 . S
O805 Gd777 2.506 . S
O805 C788 1.252 . S
O806 Gd777 2.435 . S
O806 C795 1.256 . S
O807 Gd776 2.327 . S
O807 Gd777 2.717 . S
O807 C795 1.257 . S
H808 C781 0.930 . S
H809 C782 0.931 . S
H810 C784 0.931 . S
H811 C785 0.931 . S
H812 C790 0.930 . S
H813 C791 0.931 . S
H814 C793 0.931 . S
H815 C794 0.931 . S
Gd816 C819 2.818 . S
Gd816 O836 2.377 . S
Gd816 O838 2.448 . S
Gd816 O839 2.506 . S
Gd816 O840 2.435 . S
Gd816 O841 2.717 . S
Gd816 O843 2.395 . S
Gd816 O847 2.327 . S
Gd817 C828 2.818 . S
Gd817 O837 2.395 . S
Gd817 O841 2.327 . S
Gd817 O842 2.377 . S
Gd817 O844 2.448 . S
Gd817 O845 2.506 . S
Gd817 O846 2.435 . S
Gd817 O847 2.717 . S
C818 O836 1.240 . S
C818 O837 1.240 . S
C819 Gd816 2.818 . S
C819 C820 1.510 . S
C819 O838 1.249 . S
C819 O839 1.252 . S
C820 C819 1.510 . S
C820 C821 1.404 . S
C820 C822 1.352 . S
C821 C820 1.404 . S
C821 C825 1.389 . S
C821 H848 0.930 . S
C822 C820 1.352 . S
C822 C824 1.374 . S
C822 H849 0.931 . S
C823 C824 1.359 . S
C823 C825 1.364 . S
C824 C822 1.374 . S
C824 C823 1.359 . S
C824 H850 0.931 . S
C825 C821 1.389 . S
C825 C823 1.364 . S
C825 H851 0.931 . S
C826 O840 1.256 . S
C826 O841 1.257 . S
C827 O842 1.240 . S
C827 O843 1.240 . S
C828 Gd817 2.818 . S
C828 C829 1.510 . S
C828 O844 1.249 . S
C828 O845 1.252 . S
C829 C828 1.510 . S
C829 C830 1.404 . S
C829 C831 1.352 . S
C830 C829 1.404 . S
C830 C834 1.389 . S
C830 H852 0.930 . S
C831 C829 1.352 . S
C831 C833 1.374 . S
C831 H853 0.931 . S
C832 C833 1.359 . S
C832 C834 1.364 . S
C833 C831 1.374 . S
C833 C832 1.359 . S
C833 H854 0.931 . S
C834 C830 1.389 . S
C834 C832 1.364 . S
C834 H855 0.931 . S
C835 O846 1.256 . S
C835 O847 1.257 . S
O836 Gd816 2.377 . S
O836 C818 1.240 . S
O837 Gd817 2.395 . S
O837 C818 1.240 . S
O838 Gd816 2.448 . S
O838 C819 1.249 . S
O839 Gd816 2.506 . S
O839 C819 1.252 . S
O840 Gd816 2.435 . S
O840 C826 1.256 . S
O841 Gd816 2.717 . S
O841 Gd817 2.327 . S
O841 C826 1.257 . S
O842 Gd817 2.377 . S
O842 C827 1.240 . S
O843 Gd816 2.395 . S
O843 C827 1.240 . S
O844 Gd817 2.448 . S
O844 C828 1.249 . S
O845 Gd817 2.506 . S
O845 C828 1.252 . S
O846 Gd817 2.435 . S
O846 C835 1.256 . S
O847 Gd816 2.327 . S
O847 Gd817 2.717 . S
O847 C835 1.257 . S
H848 C821 0.930 . S
H849 C822 0.931 . S
H850 C824 0.931 . S
H851 C825 0.931 . S
H852 C830 0.930 . S
H853 C831 0.931 . S
H854 C833 0.931 . S
H855 C834 0.931 . S
Gd856 C859 2.818 . S
Gd856 O876 2.377 . S
Gd856 O878 2.448 . S
Gd856 O879 2.506 . S
Gd856 O880 2.435 . S
Gd856 O881 2.717 . S
Gd856 O883 2.395 . S
Gd856 O887 2.327 . S
Gd857 C868 2.818 . S
Gd857 O877 2.395 . S
Gd857 O881 2.327 . S
Gd857 O882 2.377 . S
Gd857 O884 2.448 . S
Gd857 O885 2.506 . S
Gd857 O886 2.435 . S
Gd857 O887 2.717 . S
C858 O876 1.240 . S
C858 O877 1.240 . S
C859 Gd856 2.818 . S
C859 C860 1.510 . S
C859 O878 1.249 . S
C859 O879 1.252 . S
C860 C859 1.510 . S
C860 C861 1.404 . S
C860 C862 1.352 . S
C861 C860 1.404 . S
C861 C865 1.389 . S
C861 H888 0.930 . S
C862 C860 1.352 . S
C862 C864 1.374 . S
C862 H889 0.931 . S
C863 C864 1.359 . S
C863 C865 1.364 . S
C864 C862 1.374 . S
C864 C863 1.359 . S
C864 H890 0.931 . S
C865 C861 1.389 . S
C865 C863 1.364 . S
C865 H891 0.931 . S
C866 O880 1.256 . S
C866 O881 1.257 . S
C867 O882 1.240 . S
C867 O883 1.240 . S
C868 Gd857 2.818 . S
C868 C869 1.510 . S
C868 O884 1.249 . S
C868 O885 1.252 . S
C869 C868 1.510 . S
C869 C870 1.404 . S
C869 C871 1.352 . S
C870 C869 1.404 . S
C870 C874 1.389 . S
C870 H892 0.930 . S
C871 C869 1.352 . S
C871 C873 1.374 . S
C871 H893 0.931 . S
C872 C873 1.359 . S
C872 C874 1.364 . S
C873 C871 1.374 . S
C873 C872 1.359 . S
C873 H894 0.931 . S
C874 C870 1.389 . S
C874 C872 1.364 . S
C874 H895 0.931 . S
C875 O886 1.256 . S
C875 O887 1.257 . S
O876 Gd856 2.377 . S
O876 C858 1.240 . S
O877 Gd857 2.395 . S
O877 C858 1.240 . S
O878 Gd856 2.448 . S
O878 C859 1.249 . S
O879 Gd856 2.506 . S
O879 C859 1.252 . S
O880 Gd856 2.435 . S
O880 C866 1.256 . S
O881 Gd856 2.717 . S
O881 Gd857 2.327 . S
O881 C866 1.257 . S
O882 Gd857 2.377 . S
O882 C867 1.240 . S
O883 Gd856 2.395 . S
O883 C867 1.240 . S
O884 Gd857 2.448 . S
O884 C868 1.249 . S
O885 Gd857 2.506 . S
O885 C868 1.252 . S
O886 Gd857 2.435 . S
O886 C875 1.256 . S
O887 Gd856 2.327 . S
O887 Gd857 2.717 . S
O887 C875 1.257 . S
H888 C861 0.930 . S
H889 C862 0.931 . S
H890 C864 0.931 . S
H891 C865 0.931 . S
H892 C870 0.930 . S
H893 C871 0.931 . S
H894 C873 0.931 . S
H895 C874 0.931 . S
Gd896 C899 2.818 . S
Gd896 O916 2.377 . S
Gd896 O918 2.448 . S
Gd896 O919 2.506 . S
Gd896 O920 2.435 . S
Gd896 O921 2.717 . S
Gd896 O923 2.395 . S
Gd896 O927 2.327 . S
Gd897 C908 2.818 . S
Gd897 O917 2.395 . S
Gd897 O921 2.327 . S
Gd897 O922 2.377 . S
Gd897 O924 2.448 . S
Gd897 O925 2.506 . S
Gd897 O926 2.435 . S
Gd897 O927 2.717 . S
C898 O916 1.240 . S
C898 O917 1.240 . S
C899 Gd896 2.818 . S
C899 C900 1.510 . S
C899 O918 1.249 . S
C899 O919 1.252 . S
C900 C899 1.510 . S
C900 C901 1.404 . S
C900 C902 1.352 . S
C901 C900 1.404 . S
C901 C905 1.389 . S
C901 H928 0.930 . S
C902 C900 1.352 . S
C902 C904 1.374 . S
C902 H929 0.931 . S
C903 C904 1.359 . S
C903 C905 1.364 . S
C904 C902 1.374 . S
C904 C903 1.359 . S
C904 H930 0.931 . S
C905 C901 1.389 . S
C905 C903 1.364 . S
C905 H931 0.931 . S
C906 O920 1.256 . S
C906 O921 1.257 . S
C907 O922 1.240 . S
C907 O923 1.240 . S
C908 Gd897 2.818 . S
C908 C909 1.510 . S
C908 O924 1.249 . S
C908 O925 1.252 . S
C909 C908 1.510 . S
C909 C910 1.404 . S
C909 C911 1.352 . S
C910 C909 1.404 . S
C910 C914 1.389 . S
C910 H932 0.930 . S
C911 C909 1.352 . S
C911 C913 1.374 . S
C911 H933 0.931 . S
C912 C913 1.359 . S
C912 C914 1.364 . S
C913 C911 1.374 . S
C913 C912 1.359 . S
C913 H934 0.931 . S
C914 C910 1.389 . S
C914 C912 1.364 . S
C914 H935 0.931 . S
C915 O926 1.256 . S
C915 O927 1.257 . S
O916 Gd896 2.377 . S
O916 C898 1.240 . S
O917 Gd897 2.395 . S
O917 C898 1.240 . S
O918 Gd896 2.448 . S
O918 C899 1.249 . S
O919 Gd896 2.506 . S
O919 C899 1.252 . S
O920 Gd896 2.435 . S
O920 C906 1.256 . S
O921 Gd896 2.717 . S
O921 Gd897 2.327 . S
O921 C906 1.257 . S
O922 Gd897 2.377 . S
O922 C907 1.240 . S
O923 Gd896 2.395 . S
O923 C907 1.240 . S
O924 Gd897 2.448 . S
O924 C908 1.249 . S
O925 Gd897 2.506 . S
O925 C908 1.252 . S
O926 Gd897 2.435 . S
O926 C915 1.256 . S
O927 Gd896 2.327 . S
O927 Gd897 2.717 . S
O927 C915 1.257 . S
H928 C901 0.930 . S
H929 C902 0.931 . S
H930 C904 0.931 . S
H931 C905 0.931 . S
H932 C910 0.930 . S
H933 C911 0.931 . S
H934 C913 0.931 . S
H935 C914 0.931 . S
Gd936 C939 2.818 1_554 S
Gd936 O956 2.377 1_554 S
Gd936 O958 2.448 1_554 S
Gd936 O959 2.506 . S
Gd936 O960 2.435 1_554 S
Gd936 O961 2.717 1_554 S
Gd936 O963 2.395 . S
Gd936 O967 2.327 . S
Gd937 C948 2.818 1_455 S
Gd937 O957 2.395 . S
Gd937 O961 2.327 1_554 S
Gd937 O962 2.377 . S
Gd937 O964 2.448 1_455 S
Gd937 O965 2.506 1_455 S
Gd937 O966 2.435 . S
Gd937 O967 2.717 . S
C938 O956 1.240 1_554 S
C938 O957 1.240 . S
C939 Gd936 2.818 1_556 S
C939 C940 1.510 . S
C939 O958 1.249 . S
C939 O959 1.252 1_556 S
C940 C939 1.510 . S
C940 C941 1.404 . S
C940 C942 1.352 1_556 S
C941 C940 1.404 . S
C941 C945 1.389 . S
C941 H968 0.930 . S
C942 C940 1.352 1_554 S
C942 C944 1.374 . S
C942 H969 0.931 . S
C943 C944 1.359 1_556 S
C943 C945 1.364 . S
C944 C942 1.374 . S
C944 C943 1.359 1_554 S
C944 H970 0.931 . S
C945 C941 1.389 . S
C945 C943 1.364 . S
C945 H971 0.931 . S
C946 O960 1.256 . S
C946 O961 1.257 . S
C947 O962 1.240 . S
C947 O963 1.240 . S
C948 Gd937 2.818 1_655 S
C948 C949 1.510 . S
C948 O964 1.249 . S
C948 O965 1.252 . S
C949 C948 1.510 . S
C949 C950 1.404 . S
C949 C951 1.352 . S
C950 C949 1.404 . S
C950 C954 1.389 . S
C950 H972 0.930 . S
C951 C949 1.352 . S
C951 C953 1.374 . S
C951 H973 0.931 . S
C952 C953 1.359 . S
C952 C954 1.364 . S
C953 C951 1.374 . S
C953 C952 1.359 . S
C953 H974 0.931 . S
C954 C950 1.389 . S
C954 C952 1.364 . S
C954 H975 0.931 . S
C955 O966 1.256 . S
C955 O967 1.257 . S
O956 Gd936 2.377 1_556 S
O956 C938 1.240 1_556 S
O957 Gd937 2.395 . S
O957 C938 1.240 . S
O958 Gd936 2.448 1_556 S
O958 C939 1.249 . S
O959 Gd936 2.506 . S
O959 C939 1.252 1_554 S
O960 Gd936 2.435 1_556 S
O960 C946 1.256 . S
O961 Gd936 2.717 1_556 S
O961 Gd937 2.327 1_556 S
O961 C946 1.257 . S
O962 Gd937 2.377 . S
O962 C947 1.240 . S
O963 Gd936 2.395 . S
O963 C947 1.240 . S
O964 Gd937 2.448 1_655 S
O964 C948 1.249 . S
O965 Gd937 2.506 1_655 S
O965 C948 1.252 . S
O966 Gd937 2.435 . S
O966 C955 1.256 . S
O967 Gd936 2.327 . S
O967 Gd937 2.717 . S
O967 C955 1.257 . S
H968 C941 0.930 . S
H969 C942 0.931 . S
H970 C944 0.931 . S
H971 C945 0.931 . S
H972 C950 0.930 . S
H973 C951 0.931 . S
H974 C953 0.931 . S
H975 C954 0.931 . S
H976 C988 0.930 . S
H977 C990 0.930 . S
H978 C991 0.930 1_554 S
H979 C995 0.959 . S
H980 C995 0.959 . S
H981 C995 0.961 . S
H982 C996 0.960 . S
H983 C996 0.961 . S
H984 C996 0.959 . S
H985 C999 0.929 . S
H986 C1000 0.931 . S
H987 C1002 0.930 . S
C988 H976 0.930 . S
C988 C989 1.399 . S
C988 C993 1.399 . S
C989 C988 1.399 . S
C989 C990 1.376 . S
C990 H977 0.930 . S
C990 C989 1.376 . S
C990 C991 1.388 . S
C991 H978 0.930 1_556 S
C991 C990 1.388 . S
C991 C992 1.390 . S
C992 C991 1.390 . S
C992 C993 1.394 . S
C992 C998 1.465 . S
C993 C988 1.399 . S
C993 C992 1.394 . S
C993 C994 1.516 . S
C994 C993 1.516 . S
C994 C995 1.502 1_455 S
C994 C996 1.561 . S
C994 C997 1.526 . S
C995 H979 0.959 . S
C995 H980 0.959 . S
C995 H981 0.961 . S
C995 C994 1.502 1_655 S
C996 H982 0.960 . S
C996 H983 0.961 . S
C996 H984 0.959 . S
C996 C994 1.561 . S
C997 C994 1.526 . S
C997 C998 1.396 . S
C997 C1002 1.390 . S
C998 C992 1.465 . S
C998 C997 1.396 . S
C998 C999 1.399 1_556 S
C999 H985 0.929 . S
C999 C998 1.399 1_554 S
C999 C1000 1.385 . S
C1000 H986 0.931 . S
C1000 C999 1.385 . S
C1000 C1001 1.385 1_554 S
C1001 C1000 1.385 1_556 S
C1001 C1002 1.394 . S
C1002 H987 0.930 . S
C1002 C997 1.390 . S
C1002 C1001 1.394 . S
H1003 C1015 0.930 . S
H1004 C1017 0.930 . S
H1005 C1018 0.930 . S
H1006 C1022 0.959 . S
H1007 C1022 0.959 . S
H1008 C1022 0.961 . S
H1009 C1023 0.960 . S
H1010 C1023 0.961 . S
H1011 C1023 0.959 . S
H1012 C1026 0.929 . S
H1013 C1027 0.931 . S
H1014 C1029 0.930 . S
C1015 H1003 0.930 . S
C1015 C1016 1.399 . S
C1015 C1020 1.399 . S
C1016 C1015 1.399 . S
C1016 C1017 1.376 . S
C1017 H1004 0.930 . S
C1017 C1016 1.376 . S
C1017 C1018 1.388 . S
C1018 H1005 0.930 . S
C1018 C1017 1.388 . S
C1018 C1019 1.390 . S
C1019 C1018 1.390 . S
C1019 C1020 1.394 . S
C1019 C1025 1.465 . S
C1020 C1015 1.399 . S
C1020 C1019 1.394 . S
C1020 C1021 1.516 . S
C1021 C1020 1.516 . S
C1021 C1022 1.502 . S
C1021 C1023 1.561 . S
C1021 C1024 1.526 . S
C1022 H1006 0.959 . S
C1022 H1007 0.959 . S
C1022 H1008 0.961 . S
C1022 C1021 1.502 . S
C1023 H1009 0.960 . S
C1023 H1010 0.961 . S
C1023 H1011 0.959 . S
C1023 C1021 1.561 . S
C1024 C1021 1.526 . S
C1024 C1025 1.396 . S
C1024 C1029 1.390 . S
C1025 C1019 1.465 . S
C1025 C1024 1.396 . S
C1025 C1026 1.399 . S
C1026 H1012 0.929 . S
C1026 C1025 1.399 . S
C1026 C1027 1.385 . S
C1027 H1013 0.931 . S
C1027 C1026 1.385 . S
C1027 C1028 1.389 . S
C1028 C1027 1.389 . S
C1028 C1029 1.387 . S
C1029 H1014 0.930 . S
C1029 C1024 1.390 . S
C1029 C1028 1.387 . S
H1030 C1042 0.930 . S
H1031 C1044 0.930 . S
H1032 C1045 0.930 . S
H1033 C1049 0.959 . S
H1034 C1049 0.959 . S
H1035 C1049 0.961 . S
H1036 C1050 0.960 . S
H1037 C1050 0.961 . S
H1038 C1050 0.959 . S
H1039 C1053 0.929 . S
H1040 C1054 0.931 . S
H1041 C1056 0.930 . S
C1042 H1030 0.930 . S
C1042 C1043 1.399 . S
C1042 C1047 1.399 . S
C1043 C1042 1.399 . S
C1043 C1044 1.376 . S
C1044 H1031 0.930 . S
C1044 C1043 1.376 . S
C1044 C1045 1.388 . S
C1045 H1032 0.930 . S
C1045 C1044 1.388 . S
C1045 C1046 1.390 . S
C1046 C1045 1.390 . S
C1046 C1047 1.394 . S
C1046 C1052 1.465 . S
C1047 C1042 1.399 . S
C1047 C1046 1.394 . S
C1047 C1048 1.516 . S
C1048 C1047 1.516 . S
C1048 C1049 1.502 . S
C1048 C1050 1.561 . S
C1048 C1051 1.526 . S
C1049 H1033 0.959 . S
C1049 H1034 0.959 . S
C1049 H1035 0.961 . S
C1049 C1048 1.502 . S
C1050 H1036 0.960 . S
C1050 H1037 0.961 . S
C1050 H1038 0.959 . S
C1050 C1048 1.561 . S
C1051 C1048 1.526 . S
C1051 C1052 1.396 . S
C1051 C1056 1.390 . S
C1052 C1046 1.465 . S
C1052 C1051 1.396 . S
C1052 C1053 1.399 . S
C1053 H1039 0.929 . S
C1053 C1052 1.399 . S
C1053 C1054 1.385 . S
C1054 H1040 0.931 . S
C1054 C1053 1.385 . S
C1054 C1055 1.389 . S
C1055 C1054 1.389 . S
C1055 C1056 1.387 . S
C1056 H1041 0.930 . S
C1056 C1051 1.390 . S
C1056 C1055 1.387 . S
H1057 C1069 0.930 . S
H1058 C1071 0.930 . S
H1059 C1072 0.930 . S
H1060 C1076 0.959 . S
H1061 C1076 0.959 . S
H1062 C1076 0.961 . S
H1063 C1077 0.960 . S
H1064 C1077 0.961 . S
H1065 C1077 0.959 . S
H1066 C1080 0.929 . S
H1067 C1081 0.931 . S
H1068 C1083 0.930 . S
C1069 H1057 0.930 . S
C1069 C1070 1.399 . S
C1069 C1074 1.399 . S
C1070 C1069 1.399 . S
C1070 C1071 1.376 . S
C1071 H1058 0.930 . S
C1071 C1070 1.376 . S
C1071 C1072 1.388 . S
C1072 H1059 0.930 . S
C1072 C1071 1.388 . S
C1072 C1073 1.390 . S
C1073 C1072 1.390 . S
C1073 C1074 1.394 . S
C1073 C1079 1.465 . S
C1074 C1069 1.399 . S
C1074 C1073 1.394 . S
C1074 C1075 1.516 . S
C1075 C1074 1.516 . S
C1075 C1076 1.502 . S
C1075 C1077 1.561 . S
C1075 C1078 1.526 . S
C1076 H1060 0.959 . S
C1076 H1061 0.959 . S
C1076 H1062 0.961 . S
C1076 C1075 1.502 . S
C1077 H1063 0.960 . S
C1077 H1064 0.961 . S
C1077 H1065 0.959 . S
C1077 C1075 1.561 . S
C1078 C1075 1.526 . S
C1078 C1079 1.396 . S
C1078 C1083 1.390 . S
C1079 C1073 1.465 . S
C1079 C1078 1.396 . S
C1079 C1080 1.399 . S
C1080 H1066 0.929 . S
C1080 C1079 1.399 . S
C1080 C1081 1.385 . S
C1081 H1067 0.931 . S
C1081 C1080 1.385 . S
C1081 C1082 1.389 . S
C1082 C1081 1.389 . S
C1082 C1083 1.387 . S
C1083 H1068 0.930 . S
C1083 C1078 1.390 . S
C1083 C1082 1.387 . S
H1084 C1096 0.930 1_655 S
H1085 C1098 0.930 . S
H1086 C1099 0.930 . S
H1087 C1103 0.959 . S
H1088 C1103 0.959 . S
H1089 C1103 0.961 1_655 S
H1090 C1104 0.960 . S
H1091 C1104 0.961 . S
H1092 C1104 0.959 . S
H1093 C1107 0.929 . S
H1094 C1108 0.931 . S
H1095 C1110 0.930 . S
C1096 H1084 0.930 1_455 S
C1096 C1097 1.399 . S
C1096 C1101 1.399 . S
C1097 C1096 1.399 . S
C1097 C1098 1.376 . S
C1098 H1085 0.930 . S
C1098 C1097 1.376 . S
C1098 C1099 1.388 . S
C1099 H1086 0.930 . S
C1099 C1098 1.388 . S
C1099 C1100 1.390 . S
C1100 C1099 1.390 . S
C1100 C1101 1.394 . S
C1100 C1106 1.465 . S
C1101 C1096 1.399 . S
C1101 C1100 1.394 . S
C1101 C1102 1.516 . S
C1102 C1101 1.516 . S
C1102 C1103 1.502 . S
C1102 C1104 1.561 1_455 S
C1102 C1105 1.526 . S
C1103 H1087 0.959 . S
C1103 H1088 0.959 . S
C1103 H1089 0.961 1_455 S
C1103 C1102 1.502 . S
C1104 H1090 0.960 . S
C1104 H1091 0.961 . S
C1104 H1092 0.959 . S
C1104 C1102 1.561 1_655 S
C1105 C1102 1.526 . S
C1105 C1106 1.396 . S
C1105 C1110 1.390 . S
C1106 C1100 1.465 . S
C1106 C1105 1.396 . S
C1106 C1107 1.399 . S
C1107 H1093 0.929 . S
C1107 C1106 1.399 . S
C1107 C1108 1.385 . S
C1108 H1094 0.931 . S
C1108 C1107 1.385 . S
C1108 C1109 1.389 . S
C1109 C1108 1.389 . S
C1109 C1110 1.387 . S
C1110 H1095 0.930 . S
C1110 C1105 1.390 . S
C1110 C1109 1.387 . S
H1111 C1123 0.930 . S
H1112 C1125 0.930 . S
H1113 C1126 0.930 . S
H1114 C1130 0.959 . S
H1115 C1130 0.959 . S
H1116 C1130 0.961 . S
H1117 C1131 0.960 . S
H1118 C1131 0.961 . S
H1119 C1131 0.959 . S
H1120 C1134 0.929 . S
H1121 C1135 0.931 . S
H1122 C1137 0.930 . S
C1123 H1111 0.930 . S
C1123 C1124 1.399 . S
C1123 C1128 1.399 . S
C1124 C1123 1.399 . S
C1124 C1125 1.376 . S
C1125 H1112 0.930 . S
C1125 C1124 1.376 . S
C1125 C1126 1.388 . S
C1126 H1113 0.930 . S
C1126 C1125 1.388 . S
C1126 C1127 1.390 . S
C1127 C1126 1.390 . S
C1127 C1128 1.394 . S
C1127 C1133 1.465 . S
C1128 C1123 1.399 . S
C1128 C1127 1.394 . S
C1128 C1129 1.516 . S
C1129 C1128 1.516 . S
C1129 C1130 1.502 . S
C1129 C1131 1.561 . S
C1129 C1132 1.526 . S
C1130 H1114 0.959 . S
C1130 H1115 0.959 . S
C1130 H1116 0.961 . S
C1130 C1129 1.502 . S
C1131 H1117 0.960 . S
C1131 H1118 0.961 . S
C1131 H1119 0.959 . S
C1131 C1129 1.561 . S
C1132 C1129 1.526 . S
C1132 C1133 1.396 . S
C1132 C1137 1.390 . S
C1133 C1127 1.465 . S
C1133 C1132 1.396 . S
C1133 C1134 1.399 . S
C1134 H1120 0.929 . S
C1134 C1133 1.399 . S
C1134 C1135 1.385 . S
C1135 H1121 0.931 . S
C1135 C1134 1.385 . S
C1135 C1136 1.389 . S
C1136 C1135 1.389 . S
C1136 C1137 1.387 . S
C1137 H1122 0.930 . S
C1137 C1132 1.390 . S
C1137 C1136 1.387 . S
H1138 C1150 0.930 . S
H1139 C1152 0.930 . S
H1140 C1153 0.930 . S
H1141 C1157 0.959 . S
H1142 C1157 0.959 . S
H1143 C1157 0.961 . S
H1144 C1158 0.960 . S
H1145 C1158 0.961 . S
H1146 C1158 0.959 . S
H1147 C1161 0.929 . S
H1148 C1162 0.931 . S
H1149 C1164 0.930 . S
C1150 H1138 0.930 . S
C1150 C1151 1.399 . S
C1150 C1155 1.399 . S
C1151 C1150 1.399 . S
C1151 C1152 1.376 . S
C1152 H1139 0.930 . S
C1152 C1151 1.376 . S
C1152 C1153 1.388 . S
C1153 H1140 0.930 . S
C1153 C1152 1.388 . S
C1153 C1154 1.390 . S
C1154 C1153 1.390 . S
C1154 C1155 1.394 . S
C1154 C1160 1.465 . S
C1155 C1150 1.399 . S
C1155 C1154 1.394 . S
C1155 C1156 1.516 . S
C1156 C1155 1.516 . S
C1156 C1157 1.502 . S
C1156 C1158 1.561 . S
C1156 C1159 1.526 . S
C1157 H1141 0.959 . S
C1157 H1142 0.959 . S
C1157 H1143 0.961 . S
C1157 C1156 1.502 . S
C1158 H1144 0.960 . S
C1158 H1145 0.961 . S
C1158 H1146 0.959 . S
C1158 C1156 1.561 . S
C1159 C1156 1.526 . S
C1159 C1160 1.396 . S
C1159 C1164 1.390 . S
C1160 C1154 1.465 . S
C1160 C1159 1.396 . S
C1160 C1161 1.399 . S
C1161 H1147 0.929 . S
C1161 C1160 1.399 . S
C1161 C1162 1.385 . S
C1162 H1148 0.931 . S
C1162 C1161 1.385 . S
C1162 C1163 1.389 . S
C1163 C1162 1.389 . S
C1163 C1164 1.387 . S
C1164 H1149 0.930 . S
C1164 C1159 1.390 . S
C1164 C1163 1.387 . S
H1165 C1177 0.930 . S
H1166 C1179 0.930 . S
H1167 C1180 0.930 . S
H1168 C1184 0.959 . S
H1169 C1184 0.959 . S
H1170 C1184 0.961 . S
H1171 C1185 0.960 . S
H1172 C1185 0.961 . S
H1173 C1185 0.959 . S
H1174 C1188 0.929 . S
H1175 C1189 0.931 . S
H1176 C1191 0.930 . S
C1177 H1165 0.930 . S
C1177 C1178 1.399 . S
C1177 C1182 1.399 . S
C1178 C1177 1.399 . S
C1178 C1179 1.376 . S
C1179 H1166 0.930 . S
C1179 C1178 1.376 . S
C1179 C1180 1.388 . S
C1180 H1167 0.930 . S
C1180 C1179 1.388 . S
C1180 C1181 1.390 . S
C1181 C1180 1.390 . S
C1181 C1182 1.394 . S
C1181 C1187 1.465 . S
C1182 C1177 1.399 . S
C1182 C1181 1.394 . S
C1182 C1183 1.516 . S
C1183 C1182 1.516 . S
C1183 C1184 1.502 . S
C1183 C1185 1.561 . S
C1183 C1186 1.526 . S
C1184 H1168 0.959 . S
C1184 H1169 0.959 . S
C1184 H1170 0.961 . S
C1184 C1183 1.502 . S
C1185 H1171 0.960 . S
C1185 H1172 0.961 . S
C1185 H1173 0.959 . S
C1185 C1183 1.561 . S
C1186 C1183 1.526 . S
C1186 C1187 1.396 . S
C1186 C1191 1.390 . S
C1187 C1181 1.465 . S
C1187 C1186 1.396 . S
C1187 C1188 1.399 . S
C1188 H1174 0.929 . S
C1188 C1187 1.399 . S
C1188 C1189 1.385 . S
C1189 H1175 0.931 . S
C1189 C1188 1.385 . S
C1189 C1190 1.389 . S
C1190 C1189 1.389 . S
C1190 C1191 1.387 . S
C1191 H1176 0.930 . S
C1191 C1186 1.390 . S
C1191 C1190 1.387 . S
H1192 C1204 0.930 . S
H1193 C1206 0.930 . S
H1194 C1207 0.908 1_455 S
H1195 C1211 0.959 . S
H1196 C1211 0.959 . S
H1197 C1211 0.961 . S
H1198 C1212 0.960 . S
H1199 C1212 0.961 . S
H1200 C1212 0.959 . S
H1201 C1215 0.929 . S
H1202 C1216 0.931 . S
H1203 C1218 0.930 . S
C1204 H1192 0.930 . S
C1204 C1205 1.399 . S
C1204 C1209 1.399 . S
C1205 C1204 1.399 . S
C1205 C1206 1.376 . S
C1206 H1193 0.930 . S
C1206 C1205 1.376 . S
C1206 C1207 1.388 . S
C1207 H1194 0.908 1_655 S
C1207 C1206 1.388 . S
C1207 C1208 1.390 . S
C1208 C1207 1.390 . S
C1208 C1209 1.394 . S
C1208 C1214 1.465 1_655 S
C1209 C1204 1.399 . S
C1209 C1208 1.394 . S
C1209 C1210 1.516 . S
C1210 C1209 1.516 . S
C1210 C1211 1.502 . S
C1210 C1212 1.561 1_655 S
C1210 C1213 1.526 1_655 S
C1211 H1195 0.959 . S
C1211 H1196 0.959 . S
C1211 H1197 0.961 . S
C1211 C1210 1.502 . S
C1212 H1198 0.960 . S
C1212 H1199 0.961 . S
C1212 H1200 0.959 . S
C1212 C1210 1.561 1_455 S
C1213 C1210 1.526 1_455 S
C1213 C1214 1.396 . S
C1213 C1218 1.390 . S
C1214 C1208 1.465 1_455 S
C1214 C1213 1.396 . S
C1214 C1215 1.399 . S
C1215 H1201 0.929 . S
C1215 C1214 1.399 . S
C1215 C1216 1.385 . S
C1216 H1202 0.931 . S
C1216 C1215 1.385 . S
C1216 C1217 1.389 . S
C1217 C1216 1.389 . S
C1217 C1218 1.387 . S
C1218 H1203 0.930 . S
C1218 C1213 1.390 . S
C1218 C1217 1.387 . S
H1219 C1231 0.930 . S
H1220 C1233 0.930 . S
H1221 C1234 0.930 . S
H1222 C1238 0.959 . S
H1223 C1238 0.959 . S
H1224 C1238 0.961 . S
H1225 C1239 0.960 . S
H1226 C1239 0.961 . S
H1227 C1239 0.959 . S
H1228 C1242 0.929 . S
H1229 C1243 0.931 . S
H1230 C1245 0.930 . S
C1231 H1219 0.930 . S
C1231 C1232 1.399 . S
C1231 C1236 1.399 . S
C1232 C1231 1.399 . S
C1232 C1233 1.376 . S
C1233 H1220 0.930 . S
C1233 C1232 1.376 . S
C1233 C1234 1.388 . S
C1234 H1221 0.930 . S
C1234 C1233 1.388 . S
C1234 C1235 1.390 . S
C1235 C1234 1.390 . S
C1235 C1236 1.394 . S
C1235 C1241 1.465 . S
C1236 C1231 1.399 . S
C1236 C1235 1.394 . S
C1236 C1237 1.516 . S
C1237 C1236 1.516 . S
C1237 C1238 1.502 . S
C1237 C1239 1.561 . S
C1237 C1240 1.526 . S
C1238 H1222 0.959 . S
C1238 H1223 0.959 . S
C1238 H1224 0.961 . S
C1238 C1237 1.502 . S
C1239 H1225 0.960 . S
C1239 H1226 0.961 . S
C1239 H1227 0.959 . S
C1239 C1237 1.561 . S
C1240 C1237 1.526 . S
C1240 C1241 1.396 . S
C1240 C1245 1.390 . S
C1241 C1235 1.465 . S
C1241 C1240 1.396 . S
C1241 C1242 1.399 . S
C1242 H1228 0.929 . S
C1242 C1241 1.399 . S
C1242 C1243 1.385 . S
C1243 H1229 0.931 . S
C1243 C1242 1.385 . S
C1243 C1244 1.389 . S
C1244 C1243 1.389 . S
C1244 C1245 1.387 . S
C1245 H1230 0.930 . S
C1245 C1240 1.390 . S
C1245 C1244 1.387 . S
H1246 C1258 0.930 . S
H1247 C1260 0.930 . S
H1248 C1261 0.930 . S
H1249 C1265 0.959 . S
H1250 C1265 0.959 . S
H1251 C1265 0.961 . S
H1252 C1266 0.960 . S
H1253 C1266 0.961 . S
H1254 C1266 0.959 . S
H1255 C1269 0.896 1_565 S
H1256 C1270 0.917 1_565 S
H1257 C1272 0.930 . S
C1258 H1246 0.930 . S
C1258 C1259 1.399 . S
C1258 C1263 1.399 . S
C1259 C1258 1.399 . S
C1259 C1260 1.376 . S
C1260 H1247 0.930 . S
C1260 C1259 1.376 . S
C1260 C1261 1.388 . S
C1261 H1248 0.930 . S
C1261 C1260 1.388 . S
C1261 C1262 1.390 . S
C1262 C1261 1.390 . S
C1262 C1263 1.394 . S
C1262 C1268 1.465 . S
C1263 C1258 1.399 . S
C1263 C1262 1.394 . S
C1263 C1264 1.516 . S
C1264 C1263 1.516 . S
C1264 C1265 1.502 . S
C1264 C1266 1.561 . S
C1264 C1267 1.526 . S
C1265 H1249 0.959 . S
C1265 H1250 0.959 . S
C1265 H1251 0.961 . S
C1265 C1264 1.502 . S
C1266 H1252 0.960 . S
C1266 H1253 0.961 . S
C1266 H1254 0.959 . S
C1266 C1264 1.561 . S
C1267 C1264 1.526 . S
C1267 C1268 1.396 . S
C1267 C1272 1.390 . S
C1268 C1262 1.465 . S
C1268 C1267 1.396 . S
C1268 C1269 1.399 . S
C1269 H1255 0.896 1_545 S
C1269 C1268 1.399 . S
C1269 C1270 1.385 . S
C1270 H1256 0.917 1_545 S
C1270 C1269 1.385 . S
C1270 C1271 1.389 . S
C1271 C1270 1.389 . S
C1271 C1272 1.387 . S
C1272 H1257 0.930 . S
C1272 C1267 1.390 . S
C1272 C1271 1.387 . S
H1273 C1285 0.930 . S
H1274 C1287 0.930 . S
H1275 C1288 0.930 . S
H1276 C1292 0.959 . S
H1277 C1292 0.959 . S
H1278 C1292 0.961 . S
H1279 C1293 0.960 . S
H1280 C1293 0.961 . S
H1281 C1293 0.959 . S
H1282 C1296 0.929 . S
H1283 C1297 0.931 . S
H1284 C1299 0.930 . S
C1285 H1273 0.930 . S
C1285 C1286 1.399 . S
C1285 C1290 1.399 . S
C1286 C1285 1.399 . S
C1286 C1287 1.376 . S
C1287 H1274 0.930 . S
C1287 C1286 1.376 . S
C1287 C1288 1.388 . S
C1288 H1275 0.930 . S
C1288 C1287 1.388 . S
C1288 C1289 1.390 . S
C1289 C1288 1.390 . S
C1289 C1290 1.394 . S
C1289 C1295 1.465 . S
C1290 C1285 1.399 . S
C1290 C1289 1.394 . S
C1290 C1291 1.516 . S
C1291 C1290 1.516 . S
C1291 C1292 1.502 . S
C1291 C1293 1.561 . S
C1291 C1294 1.526 . S
C1292 H1276 0.959 . S
C1292 H1277 0.959 . S
C1292 H1278 0.961 . S
C1292 C1291 1.502 . S
C1293 H1279 0.960 . S
C1293 H1280 0.961 . S
C1293 H1281 0.959 . S
C1293 C1291 1.561 . S
C1294 C1291 1.526 . S
C1294 C1295 1.396 . S
C1294 C1299 1.390 . S
C1295 C1289 1.465 . S
C1295 C1294 1.396 . S
C1295 C1296 1.399 . S
C1296 H1282 0.929 . S
C1296 C1295 1.399 . S
C1296 C1297 1.385 . S
C1297 H1283 0.931 . S
C1297 C1296 1.385 . S
C1297 C1298 1.389 . S
C1298 C1297 1.389 . S
C1298 C1299 1.387 . S
C1299 H1284 0.930 . S
C1299 C1294 1.390 . S
C1299 C1298 1.387 . S
H1300 C1312 0.930 . S
H1301 C1314 0.937 . S
H1302 C1315 0.930 . S
H1303 C1319 0.959 . S
H1304 C1319 0.959 . S
H1305 C1319 0.961 . S
H1306 C1320 0.960 1_565 S
H1307 C1320 0.961 1_565 S
H1308 C1320 0.960 . S
H1309 C1323 0.929 . S
H1310 C1324 0.931 . S
H1311 C1326 0.930 . S
C1312 H1300 0.930 . S
C1312 C1313 1.399 . S
C1312 C1317 1.399 . S
C1313 C1312 1.399 . S
C1313 C1314 1.376 . S
C1314 H1301 0.937 . S
C1314 C1313 1.376 . S
C1314 C1315 1.388 1_655 S
C1315 H1302 0.930 . S
C1315 C1314 1.388 1_455 S
C1315 C1316 1.390 . S
C1316 C1315 1.390 . S
C1316 C1317 1.394 1_455 S
C1316 C1322 1.465 . S
C1317 C1312 1.399 . S
C1317 C1316 1.394 1_655 S
C1317 C1318 1.516 . S
C1318 C1317 1.516 . S
C1318 C1319 1.502 . S
C1318 C1320 1.561 . S
C1318 C1321 1.526 1_655 S
C1319 H1303 0.959 . S
C1319 H1304 0.959 . S
C1319 H1305 0.961 . S
C1319 C1318 1.502 . S
C1320 H1306 0.960 1_545 S
C1320 H1307 0.961 1_545 S
C1320 H1308 0.960 . S
C1320 C1318 1.561 . S
C1321 C1318 1.526 1_455 S
C1321 C1322 1.396 . S
C1321 C1326 1.390 . S
C1322 C1316 1.465 . S
C1322 C1321 1.396 . S
C1322 C1323 1.399 . S
C1323 H1309 0.929 . S
C1323 C1322 1.399 . S
C1323 C1324 1.385 . S
C1324 H1310 0.931 . S
C1324 C1323 1.385 . S
C1324 C1325 1.389 . S
C1325 C1324 1.389 . S
C1325 C1326 1.387 . S
C1326 H1311 0.930 . S
C1326 C1321 1.390 . S
C1326 C1325 1.387 . S
H1327 C1339 0.930 . S
H1328 C1341 0.930 . S
H1329 C1342 0.930 . S
H1330 C1346 0.959 . S
H1331 C1346 0.959 . S
H1332 C1346 0.961 . S
H1333 C1347 0.960 . S
H1334 C1347 0.961 . S
H1335 C1347 0.959 . S
H1336 C1350 0.929 . S
H1337 C1351 0.931 . S
H1338 C1353 0.930 . S
C1339 H1327 0.930 . S
C1339 C1340 1.399 . S
C1339 C1344 1.399 . S
C1340 C1339 1.399 . S
C1340 C1341 1.376 . S
C1341 H1328 0.930 . S
C1341 C1340 1.376 . S
C1341 C1342 1.388 . S
C1342 H1329 0.930 . S
C1342 C1341 1.388 . S
C1342 C1343 1.390 . S
C1343 C1342 1.390 . S
C1343 C1344 1.394 . S
C1343 C1349 1.465 . S
C1344 C1339 1.399 . S
C1344 C1343 1.394 . S
C1344 C1345 1.516 . S
C1345 C1344 1.516 . S
C1345 C1346 1.502 . S
C1345 C1347 1.561 . S
C1345 C1348 1.526 . S
C1346 H1330 0.959 . S
C1346 H1331 0.959 . S
C1346 H1332 0.961 . S
C1346 C1345 1.502 . S
C1347 H1333 0.960 . S
C1347 H1334 0.961 . S
C1347 H1335 0.959 . S
C1347 C1345 1.561 . S
C1348 C1345 1.526 . S
C1348 C1349 1.396 . S
C1348 C1353 1.390 . S
C1349 C1343 1.465 . S
C1349 C1348 1.396 . S
C1349 C1350 1.399 . S
C1350 H1336 0.929 . S
C1350 C1349 1.399 . S
C1350 C1351 1.385 . S
C1351 H1337 0.931 . S
C1351 C1350 1.385 . S
C1351 C1352 1.389 . S
C1352 C1351 1.389 . S
C1352 C1353 1.387 . S
C1353 H1338 0.930 . S
C1353 C1348 1.390 . S
C1353 C1352 1.387 . S
H1354 C1366 0.930 . S
H1355 C1368 0.930 . S
H1356 C1369 0.930 . S
H1357 C1373 0.959 . S
H1358 C1373 0.959 . S
H1359 C1373 0.961 . S
H1360 C1374 0.960 . S
H1361 C1374 0.961 . S
H1362 C1374 0.959 . S
H1363 C1377 0.929 . S
H1364 C1378 0.931 . S
H1365 C1380 0.930 . S
C1366 H1354 0.930 . S
C1366 C1367 1.399 . S
C1366 C1371 1.399 . S
C1367 C1366 1.399 . S
C1367 C1368 1.376 . S
C1368 H1355 0.930 . S
C1368 C1367 1.376 . S
C1368 C1369 1.388 . S
C1369 H1356 0.930 . S
C1369 C1368 1.388 . S
C1369 C1370 1.390 . S
C1370 C1369 1.390 . S
C1370 C1371 1.394 . S
C1370 C1376 1.465 . S
C1371 C1366 1.399 . S
C1371 C1370 1.394 . S
C1371 C1372 1.516 . S
C1372 C1371 1.516 . S
C1372 C1373 1.502 . S
C1372 C1374 1.561 . S
C1372 C1375 1.526 . S
C1373 H1357 0.959 . S
C1373 H1358 0.959 . S
C1373 H1359 0.961 . S
C1373 C1372 1.502 . S
C1374 H1360 0.960 . S
C1374 H1361 0.961 . S
C1374 H1362 0.959 . S
C1374 C1372 1.561 . S
C1375 C1372 1.526 . S
C1375 C1376 1.396 . S
C1375 C1380 1.390 . S
C1376 C1370 1.465 . S
C1376 C1375 1.396 . S
C1376 C1377 1.399 . S
C1377 H1363 0.929 . S
C1377 C1376 1.399 . S
C1377 C1378 1.385 . S
C1378 H1364 0.931 . S
C1378 C1377 1.385 . S
C1378 C1379 1.389 . S
C1379 C1378 1.389 . S
C1379 C1380 1.387 . S
C1380 H1365 0.930 . S
C1380 C1375 1.390 . S
C1380 C1379 1.387 . S
H1381 C1393 0.930 . S
H1382 C1395 0.930 . S
H1383 C1396 0.930 . S
H1384 C1400 0.959 . S
H1385 C1400 0.959 . S
H1386 C1400 0.961 . S
H1387 C1401 0.960 . S
H1388 C1401 0.961 . S
H1389 C1401 0.959 . S
H1390 C1404 0.929 . S
H1391 C1405 0.931 . S
H1392 C1407 0.930 . S
C1393 H1381 0.930 . S
C1393 C1394 1.399 . S
C1393 C1398 1.399 . S
C1394 C1393 1.399 . S
C1394 C1395 1.376 . S
C1395 H1382 0.930 . S
C1395 C1394 1.376 . S
C1395 C1396 1.388 . S
C1396 H1383 0.930 . S
C1396 C1395 1.388 . S
C1396 C1397 1.390 . S
C1397 C1396 1.390 . S
C1397 C1398 1.394 . S
C1397 C1403 1.465 . S
C1398 C1393 1.399 . S
C1398 C1397 1.394 . S
C1398 C1399 1.516 . S
C1399 C1398 1.516 . S
C1399 C1400 1.502 . S
C1399 C1401 1.561 . S
C1399 C1402 1.526 . S
C1400 H1384 0.959 . S
C1400 H1385 0.959 . S
C1400 H1386 0.961 . S
C1400 C1399 1.502 . S
C1401 H1387 0.960 . S
C1401 H1388 0.961 . S
C1401 H1389 0.959 . S
C1401 C1399 1.561 . S
C1402 C1399 1.526 . S
C1402 C1403 1.396 . S
C1402 C1407 1.390 . S
C1403 C1397 1.465 . S
C1403 C1402 1.396 . S
C1403 C1404 1.399 . S
C1404 H1390 0.929 . S
C1404 C1403 1.399 . S
C1404 C1405 1.385 . S
C1405 H1391 0.931 . S
C1405 C1404 1.385 . S
C1405 C1406 1.389 . S
C1406 C1405 1.389 . S
C1406 C1407 1.387 . S
C1407 H1392 0.930 . S
C1407 C1402 1.390 . S
C1407 C1406 1.387 . S
H1408 C1420 0.930 . S
H1409 C1422 0.930 . S
H1410 C1423 0.930 . S
H1411 C1427 0.959 . S
H1412 C1427 0.959 . S
H1413 C1427 0.961 . S
H1414 C1428 0.960 . S
H1415 C1428 0.961 . S
H1416 C1428 0.959 1_545 S
H1417 C1431 0.929 1_556 S
H1418 C1432 0.923 1_545 S
H1419 C1434 0.930 . S
C1420 H1408 0.930 . S
C1420 C1421 1.399 . S
C1420 C1425 1.399 . S
C1421 C1420 1.399 . S
C1421 C1422 1.376 1_554 S
C1422 H1409 0.930 . S
C1422 C1421 1.376 1_556 S
C1422 C1423 1.388 . S
C1423 H1410 0.930 . S
C1423 C1422 1.388 . S
C1423 C1424 1.390 1_556 S
C1424 C1423 1.390 1_554 S
C1424 C1425 1.394 . S
C1424 C1430 1.465 . S
C1425 C1420 1.399 . S
C1425 C1424 1.394 . S
C1425 C1426 1.516 . S
C1426 C1425 1.516 . S
C1426 C1427 1.502 . S
C1426 C1428 1.561 . S
C1426 C1429 1.526 . S
C1427 H1411 0.959 . S
C1427 H1412 0.959 . S
C1427 H1413 0.961 . S
C1427 C1426 1.502 . S
C1428 H1414 0.960 . S
C1428 H1415 0.961 . S
C1428 H1416 0.959 1_565 S
C1428 C1426 1.561 . S
C1429 C1426 1.526 . S
C1429 C1430 1.396 . S
C1429 C1434 1.390 . S
C1430 C1424 1.465 . S
C1430 C1429 1.396 . S
C1430 C1431 1.399 . S
C1431 H1417 0.929 1_554 S
C1431 C1430 1.399 . S
C1431 C1432 1.390 . S
C1432 H1418 0.923 1_565 S
C1432 C1431 1.390 . S
C1432 C1433 1.393 . S
C1433 C1432 1.393 . S
C1433 C1434 1.387 . S
C1434 H1419 0.930 . S
C1434 C1429 1.390 . S
C1434 C1433 1.387 . S
H1435 C1447 0.930 . S
H1436 C1449 0.930 . S
H1437 C1450 0.930 . S
H1438 C1454 0.959 . S
H1439 C1454 0.959 . S
H1440 C1454 0.961 . S
H1441 C1455 0.960 . S
H1442 C1455 0.961 . S
H1443 C1455 0.959 . S
H1444 C1458 0.929 . S
H1445 C1459 0.931 . S
H1446 C1461 0.930 . S
C1447 H1435 0.930 . S
C1447 C1448 1.399 . S
C1447 C1452 1.399 . S
C1448 C1447 1.399 . S
C1448 C1449 1.376 1_556 S
C1449 H1436 0.930 . S
C1449 C1448 1.376 1_554 S
C1449 C1450 1.388 . S
C1450 H1437 0.930 . S
C1450 C1449 1.388 . S
C1450 C1451 1.390 . S
C1451 C1450 1.390 . S
C1451 C1452 1.394 1_554 S
C1451 C1457 1.465 . S
C1452 C1447 1.399 . S
C1452 C1451 1.394 1_556 S
C1452 C1453 1.516 . S
C1453 C1452 1.516 . S
C1453 C1454 1.502 . S
C1453 C1455 1.561 . S
C1453 C1456 1.526 . S
C1454 H1438 0.959 . S
C1454 H1439 0.959 . S
C1454 H1440 0.961 . S
C1454 C1453 1.502 . S
C1455 H1441 0.960 . S
C1455 H1442 0.961 . S
C1455 H1443 0.959 . S
C1455 C1453 1.561 . S
C1456 C1453 1.526 . S
C1456 C1457 1.396 1_556 S
C1456 C1461 1.390 . S
C1457 C1451 1.465 . S
C1457 C1456 1.396 1_554 S
C1457 C1458 1.399 . S
C1458 H1444 0.929 . S
C1458 C1457 1.399 . S
C1458 C1459 1.385 . S
C1459 H1445 0.931 . S
C1459 C1458 1.385 . S
C1459 C1460 1.389 . S
C1460 C1459 1.389 . S
C1460 C1461 1.387 1_554 S
C1461 H1446 0.930 . S
C1461 C1456 1.390 . S
C1461 C1460 1.387 1_556 S
H1462 C1474 0.930 . S
H1463 C1476 0.930 . S
H1464 C1477 0.930 . S
H1465 C1481 0.959 . S
H1466 C1481 0.959 . S
H1467 C1481 0.961 . S
H1468 C1482 0.960 . S
H1469 C1482 0.961 . S
H1470 C1482 0.959 . S
H1471 C1485 0.929 . S
H1472 C1486 0.931 . S
H1473 C1488 0.930 . S
C1474 H1462 0.930 . S
C1474 C1475 1.399 . S
C1474 C1479 1.399 . S
C1475 C1474 1.399 . S
C1475 C1476 1.376 . S
C1476 H1463 0.930 . S
C1476 C1475 1.376 . S
C1476 C1477 1.388 . S
C1477 H1464 0.930 . S
C1477 C1476 1.388 . S
C1477 C1478 1.390 . S
C1478 C1477 1.390 . S
C1478 C1479 1.394 . S
C1478 C1484 1.465 . S
C1479 C1474 1.399 . S
C1479 C1478 1.394 . S
C1479 C1480 1.516 . S
C1480 C1479 1.516 . S
C1480 C1481 1.502 . S
C1480 C1482 1.561 . S
C1480 C1483 1.526 . S
C1481 H1465 0.959 . S
C1481 H1466 0.959 . S
C1481 H1467 0.961 . S
C1481 C1480 1.502 . S
C1482 H1468 0.960 . S
C1482 H1469 0.961 . S
C1482 H1470 0.959 . S
C1482 C1480 1.561 . S
C1483 C1480 1.526 . S
C1483 C1484 1.396 . S
C1483 C1488 1.390 . S
C1484 C1478 1.465 . S
C1484 C1483 1.396 . S
C1484 C1485 1.399 . S
C1485 H1471 0.929 . S
C1485 C1484 1.399 . S
C1485 C1486 1.385 . S
C1486 H1472 0.931 . S
C1486 C1485 1.385 . S
C1486 C1487 1.389 . S
C1487 C1486 1.389 . S
C1487 C1488 1.387 . S
C1488 H1473 0.930 . S
C1488 C1483 1.390 . S
C1488 C1487 1.387 . S
H1489 C1501 0.930 . S
H1490 C1503 0.930 . S
H1491 C1504 0.930 . S
H1492 C1508 0.959 . S
H1493 C1508 0.959 . S
H1494 C1508 0.961 . S
H1495 C1509 0.960 . S
H1496 C1509 0.961 . S
H1497 C1509 0.959 . S
H1498 C1512 0.929 . S
H1499 C1513 0.916 1_455 S
H1500 C1515 0.930 . S
C1501 H1489 0.930 . S
C1501 C1502 1.399 . S
C1501 C1506 1.399 . S
C1502 C1501 1.399 . S
C1502 C1503 1.376 . S
C1503 H1490 0.930 . S
C1503 C1502 1.376 . S
C1503 C1504 1.388 . S
C1504 H1491 0.930 . S
C1504 C1503 1.388 . S
C1504 C1505 1.390 . S
C1505 C1504 1.390 . S
C1505 C1506 1.394 . S
C1505 C1511 1.465 . S
C1506 C1501 1.399 . S
C1506 C1505 1.394 . S
C1506 C1507 1.516 . S
C1507 C1506 1.516 . S
C1507 C1508 1.502 . S
C1507 C1509 1.561 . S
C1507 C1510 1.526 . S
C1508 H1492 0.959 . S
C1508 H1493 0.959 . S
C1508 H1494 0.961 . S
C1508 C1507 1.502 . S
C1509 H1495 0.960 . S
C1509 H1496 0.961 . S
C1509 H1497 0.959 . S
C1509 C1507 1.561 . S
C1510 C1507 1.526 . S
C1510 C1511 1.396 . S
C1510 C1515 1.390 . S
C1511 C1505 1.465 . S
C1511 C1510 1.396 . S
C1511 C1512 1.399 . S
C1512 H1498 0.929 . S
C1512 C1511 1.399 . S
C1512 C1513 1.385 . S
C1513 H1499 0.916 1_655 S
C1513 C1512 1.385 . S
C1513 C1514 1.389 . S
C1514 C1513 1.389 . S
C1514 C1515 1.387 . S
C1515 H1500 0.930 . S
C1515 C1510 1.390 . S
C1515 C1514 1.387 . S
H1516 C1528 0.930 . S
H1517 C1530 0.930 . S
H1518 C1531 0.930 . S
H1519 C1535 0.959 . S
H1520 C1535 0.959 . S
H1521 C1535 0.961 . S
H1522 C1536 0.960 . S
H1523 C1536 0.961 . S
H1524 C1536 0.959 . S
H1525 C1539 0.929 . S
H1526 C1540 0.931 . S
H1527 C1542 0.930 . S
C1528 H1516 0.930 . S
C1528 C1529 1.399 . S
C1528 C1533 1.399 . S
C1529 C1528 1.399 . S
C1529 C1530 1.376 . S
C1530 H1517 0.930 . S
C1530 C1529 1.376 . S
C1530 C1531 1.388 . S
C1531 H1518 0.930 . S
C1531 C1530 1.388 . S
C1531 C1532 1.390 . S
C1532 C1531 1.390 . S
C1532 C1533 1.394 . S
C1532 C1538 1.465 . S
C1533 C1528 1.399 . S
C1533 C1532 1.394 . S
C1533 C1534 1.516 . S
C1534 C1533 1.516 . S
C1534 C1535 1.502 . S
C1534 C1536 1.561 . S
C1534 C1537 1.526 . S
C1535 H1519 0.959 . S
C1535 H1520 0.959 . S
C1535 H1521 0.961 . S
C1535 C1534 1.502 . S
C1536 H1522 0.960 . S
C1536 H1523 0.961 . S
C1536 H1524 0.959 . S
C1536 C1534 1.561 . S
C1537 C1534 1.526 . S
C1537 C1538 1.396 . S
C1537 C1542 1.390 . S
C1538 C1532 1.465 . S
C1538 C1537 1.396 . S
C1538 C1539 1.399 . S
C1539 H1525 0.929 . S
C1539 C1538 1.399 . S
C1539 C1540 1.385 . S
C1540 H1526 0.931 . S
C1540 C1539 1.385 . S
C1540 C1541 1.389 . S
C1541 C1540 1.389 . S
C1541 C1542 1.387 . S
C1542 H1527 0.930 . S
C1542 C1537 1.390 . S
C1542 C1541 1.387 . S
H1543 C1555 0.930 . S
H1544 C1557 0.930 . S
H1545 C1558 0.930 . S
H1546 C1562 0.959 . S
H1547 C1562 0.959 . S
H1548 C1562 0.961 . S
H1549 C1563 0.960 . S
H1550 C1563 0.961 . S
H1551 C1563 0.959 . S
H1552 C1566 0.929 . S
H1553 C1567 0.931 . S
H1554 C1569 0.930 . S
C1555 H1543 0.930 . S
C1555 C1556 1.399 . S
C1555 C1560 1.399 . S
C1556 C1555 1.399 . S
C1556 C1557 1.376 . S
C1557 H1544 0.930 . S
C1557 C1556 1.376 . S
C1557 C1558 1.388 . S
C1558 H1545 0.930 . S
C1558 C1557 1.388 . S
C1558 C1559 1.390 . S
C1559 C1558 1.390 . S
C1559 C1560 1.394 . S
C1559 C1565 1.465 . S
C1560 C1555 1.399 . S
C1560 C1559 1.394 . S
C1560 C1561 1.516 . S
C1561 C1560 1.516 . S
C1561 C1562 1.502 . S
C1561 C1563 1.561 . S
C1561 C1564 1.526 . S
C1562 H1546 0.959 . S
C1562 H1547 0.959 . S
C1562 H1548 0.961 . S
C1562 C1561 1.502 . S
C1563 H1549 0.960 . S
C1563 H1550 0.961 . S
C1563 H1551 0.959 . S
C1563 C1561 1.561 . S
C1564 C1561 1.526 . S
C1564 C1565 1.396 . S
C1564 C1569 1.390 . S
C1565 C1559 1.465 . S
C1565 C1564 1.396 . S
C1565 C1566 1.399 . S
C1566 H1552 0.929 . S
C1566 C1565 1.399 . S
C1566 C1567 1.385 . S
C1567 H1553 0.931 . S
C1567 C1566 1.385 . S
C1567 C1568 1.389 . S
C1568 C1567 1.389 . S
C1568 C1569 1.387 . S
C1569 H1554 0.930 . S
C1569 C1564 1.390 . S
C1569 C1568 1.387 . S
H1570 C1582 0.930 . S
H1571 C1584 0.930 . S
H1572 C1585 0.930 . S
H1573 C1589 0.959 . S
H1574 C1589 0.959 . S
H1575 C1589 0.961 . S
H1576 C1590 0.960 . S
H1577 C1590 0.961 . S
H1578 C1590 0.959 . S
H1579 C1593 0.929 . S
H1580 C1594 0.931 . S
H1581 C1596 0.930 . S
C1582 H1570 0.930 . S
C1582 C1583 1.399 . S
C1582 C1587 1.399 . S
C1583 C1582 1.399 . S
C1583 C1584 1.376 . S
C1584 H1571 0.930 . S
C1584 C1583 1.376 . S
C1584 C1585 1.388 . S
C1585 H1572 0.930 . S
C1585 C1584 1.388 . S
C1585 C1586 1.390 . S
C1586 C1585 1.390 . S
C1586 C1587 1.394 . S
C1586 C1592 1.465 . S
C1587 C1582 1.399 . S
C1587 C1586 1.394 . S
C1587 C1588 1.516 . S
C1588 C1587 1.516 . S
C1588 C1589 1.502 . S
C1588 C1590 1.561 . S
C1588 C1591 1.526 . S
C1589 H1573 0.959 . S
C1589 H1574 0.959 . S
C1589 H1575 0.961 . S
C1589 C1588 1.502 . S
C1590 H1576 0.960 . S
C1590 H1577 0.961 . S
C1590 H1578 0.959 . S
C1590 C1588 1.561 . S
C1591 C1588 1.526 . S
C1591 C1592 1.396 . S
C1591 C1596 1.390 . S
C1592 C1586 1.465 . S
C1592 C1591 1.396 . S
C1592 C1593 1.399 . S
C1593 H1579 0.929 . S
C1593 C1592 1.399 . S
C1593 C1594 1.385 . S
C1594 H1580 0.931 . S
C1594 C1593 1.385 . S
C1594 C1595 1.389 . S
C1595 C1594 1.389 . S
C1595 C1596 1.387 . S
C1596 H1581 0.930 . S
C1596 C1591 1.390 . S
C1596 C1595 1.387 . S
H1597 C1609 0.930 . S
H1598 C1611 0.930 . S
H1599 C1612 0.930 . S
H1600 C1616 0.959 . S
H1601 C1616 0.959 . S
H1602 C1616 0.961 . S
H1603 C1617 0.960 . S
H1604 C1617 0.961 . S
H1605 C1617 0.959 . S
H1606 C1620 0.929 . S
H1607 C1621 0.931 . S
H1608 C1623 0.930 . S
C1609 H1597 0.930 . S
C1609 C1610 1.399 . S
C1609 C1614 1.399 . S
C1610 C1609 1.399 . S
C1610 C1611 1.376 . S
C1611 H1598 0.930 . S
C1611 C1610 1.376 . S
C1611 C1612 1.388 . S
C1612 H1599 0.930 . S
C1612 C1611 1.388 . S
C1612 C1613 1.390 . S
C1613 C1612 1.390 . S
C1613 C1614 1.394 . S
C1613 C1619 1.465 . S
C1614 C1609 1.399 . S
C1614 C1613 1.394 . S
C1614 C1615 1.516 . S
C1615 C1614 1.516 . S
C1615 C1616 1.502 . S
C1615 C1617 1.561 . S
C1615 C1618 1.526 . S
C1616 H1600 0.959 . S
C1616 H1601 0.959 . S
C1616 H1602 0.961 . S
C1616 C1615 1.502 . S
C1617 H1603 0.960 . S
C1617 H1604 0.961 . S
C1617 H1605 0.959 . S
C1617 C1615 1.561 . S
C1618 C1615 1.526 . S
C1618 C1619 1.396 . S
C1618 C1623 1.390 . S
C1619 C1613 1.465 . S
C1619 C1618 1.396 . S
C1619 C1620 1.399 . S
C1620 H1606 0.929 . S
C1620 C1619 1.399 . S
C1620 C1621 1.385 . S
C1621 H1607 0.931 . S
C1621 C1620 1.385 . S
C1621 C1622 1.389 . S
C1622 C1621 1.389 . S
C1622 C1623 1.387 . S
C1623 H1608 0.930 . S
C1623 C1618 1.390 . S
C1623 C1622 1.387 . S
H1624 C1636 0.930 . S
H1625 C1638 0.930 . S
H1626 C1639 0.930 . S
H1627 C1643 0.959 . S
H1628 C1643 0.959 . S
H1629 C1643 0.961 . S
H1630 C1644 0.960 . S
H1631 C1644 0.961 1_556 S
H1632 C1644 0.959 . S
H1633 C1647 0.929 . S
H1634 C1648 0.931 . S
H1635 C1650 0.930 . S
C1636 H1624 0.930 . S
C1636 C1637 1.399 . S
C1636 C1641 1.399 . S
C1637 C1636 1.399 . S
C1637 C1638 1.376 . S
C1638 H1625 0.930 . S
C1638 C1637 1.376 . S
C1638 C1639 1.388 . S
C1639 H1626 0.930 . S
C1639 C1638 1.388 . S
C1639 C1640 1.390 . S
C1640 C1639 1.390 . S
C1640 C1641 1.394 . S
C1640 C1646 1.465 . S
C1641 C1636 1.399 . S
C1641 C1640 1.394 . S
C1641 C1642 1.516 . S
C1642 C1641 1.516 . S
C1642 C1643 1.502 . S
C1642 C1644 1.561 . S
C1642 C1645 1.526 . S
C1643 H1627 0.959 . S
C1643 H1628 0.959 . S
C1643 H1629 0.961 . S
C1643 C1642 1.502 . S
C1644 H1630 0.960 . S
C1644 H1631 0.961 1_554 S
C1644 H1632 0.959 . S
C1644 C1642 1.561 . S
C1645 C1642 1.526 . S
C1645 C1646 1.396 . S
C1645 C1650 1.390 . S
C1646 C1640 1.465 . S
C1646 C1645 1.396 . S
C1646 C1647 1.399 . S
C1647 H1633 0.929 . S
C1647 C1646 1.399 . S
C1647 C1648 1.385 . S
C1648 H1634 0.931 . S
C1648 C1647 1.385 . S
C1648 C1649 1.389 . S
C1649 C1648 1.389 . S
C1649 C1650 1.387 . S
C1650 H1635 0.930 . S
C1650 C1645 1.390 . S
C1650 C1649 1.387 . S
H1651 C1663 0.930 . S
H1652 C1665 0.930 . S
H1653 C1666 0.930 . S
H1654 C1670 0.959 . S
H1655 C1670 0.959 . S
H1656 C1670 0.961 . S
H1657 C1671 0.960 . S
H1658 C1671 0.961 . S
H1659 C1671 0.959 . S
H1660 C1674 0.929 . S
H1661 C1675 0.931 . S
H1662 C1677 0.930 . S
C1663 H1651 0.930 . S
C1663 C1664 1.399 . S
C1663 C1668 1.399 . S
C1664 C1663 1.399 . S
C1664 C1665 1.376 . S
C1665 H1652 0.930 . S
C1665 C1664 1.376 . S
C1665 C1666 1.388 . S
C1666 H1653 0.930 . S
C1666 C1665 1.388 . S
C1666 C1667 1.390 . S
C1667 C1666 1.390 . S
C1667 C1668 1.394 . S
C1667 C1673 1.465 . S
C1668 C1663 1.399 . S
C1668 C1667 1.394 . S
C1668 C1669 1.516 . S
C1669 C1668 1.516 . S
C1669 C1670 1.502 . S
C1669 C1671 1.561 . S
C1669 C1672 1.526 . S
C1670 H1654 0.959 . S
C1670 H1655 0.959 . S
C1670 H1656 0.961 . S
C1670 C1669 1.502 . S
C1671 H1657 0.960 . S
C1671 H1658 0.961 . S
C1671 H1659 0.959 . S
C1671 C1669 1.561 . S
C1672 C1669 1.526 . S
C1672 C1673 1.396 . S
C1672 C1677 1.390 . S
C1673 C1667 1.465 . S
C1673 C1672 1.396 . S
C1673 C1674 1.399 . S
C1674 H1660 0.929 . S
C1674 C1673 1.399 . S
C1674 C1675 1.385 . S
C1675 H1661 0.931 . S
C1675 C1674 1.385 . S
C1675 C1676 1.389 . S
C1676 C1675 1.389 . S
C1676 C1677 1.387 . S
C1677 H1662 0.930 . S
C1677 C1672 1.390 . S
C1677 C1676 1.387 . S
H1678 C1690 0.930 . S
H1679 C1692 0.930 . S
H1680 C1693 0.930 . S
H1681 C1697 0.959 . S
H1682 C1697 0.959 . S
H1683 C1697 0.961 . S
H1684 C1698 0.960 . S
H1685 C1698 0.961 . S
H1686 C1698 0.959 . S
H1687 C1701 0.929 . S
H1688 C1702 0.931 . S
H1689 C1704 0.930 . S
C1690 H1678 0.930 . S
C1690 C1691 1.399 . S
C1690 C1695 1.399 . S
C1691 C1690 1.399 . S
C1691 C1692 1.376 . S
C1692 H1679 0.930 . S
C1692 C1691 1.376 . S
C1692 C1693 1.388 . S
C1693 H1680 0.930 . S
C1693 C1692 1.388 . S
C1693 C1694 1.390 . S
C1694 C1693 1.390 . S
C1694 C1695 1.394 . S
C1694 C1700 1.465 . S
C1695 C1690 1.399 . S
C1695 C1694 1.394 . S
C1695 C1696 1.516 . S
C1696 C1695 1.516 . S
C1696 C1697 1.502 . S
C1696 C1698 1.561 . S
C1696 C1699 1.526 . S
C1697 H1681 0.959 . S
C1697 H1682 0.959 . S
C1697 H1683 0.961 . S
C1697 C1696 1.502 . S
C1698 H1684 0.960 . S
C1698 H1685 0.961 . S
C1698 H1686 0.959 . S
C1698 C1696 1.561 . S
C1699 C1696 1.526 . S
C1699 C1700 1.396 . S
C1699 C1704 1.390 . S
C1700 C1694 1.465 . S
C1700 C1699 1.396 . S
C1700 C1701 1.399 . S
C1701 H1687 0.929 . S
C1701 C1700 1.399 . S
C1701 C1702 1.385 . S
C1702 H1688 0.931 . S
C1702 C1701 1.385 . S
C1702 C1703 1.389 . S
C1703 C1702 1.389 . S
C1703 C1704 1.387 . S
C1704 H1689 0.930 . S
C1704 C1699 1.390 . S
C1704 C1703 1.387 . S
H1705 C1717 0.930 . S
H1706 C1719 0.930 . S
H1707 C1720 0.930 . S
H1708 C1724 0.959 . S
H1709 C1724 0.959 . S
H1710 C1724 0.961 . S
H1711 C1725 0.960 . S
H1712 C1725 0.961 . S
H1713 C1725 0.959 . S
H1714 C1728 0.929 . S
H1715 C1729 0.931 . S
H1716 C1731 0.930 . S
C1717 H1705 0.930 . S
C1717 C1718 1.399 . S
C1717 C1722 1.399 . S
C1718 C1717 1.399 . S
C1718 C1719 1.376 . S
C1719 H1706 0.930 . S
C1719 C1718 1.376 . S
C1719 C1720 1.388 . S
C1720 H1707 0.930 . S
C1720 C1719 1.388 . S
C1720 C1721 1.390 . S
C1721 C1720 1.390 . S
C1721 C1722 1.394 . S
C1721 C1727 1.465 . S
C1722 C1717 1.399 . S
C1722 C1721 1.394 . S
C1722 C1723 1.516 . S
C1723 C1722 1.516 . S
C1723 C1724 1.502 . S
C1723 C1725 1.561 . S
C1723 C1726 1.526 . S
C1724 H1708 0.959 . S
C1724 H1709 0.959 . S
C1724 H1710 0.961 . S
C1724 C1723 1.502 . S
C1725 H1711 0.960 . S
C1725 H1712 0.961 . S
C1725 H1713 0.959 . S
C1725 C1723 1.561 . S
C1726 C1723 1.526 . S
C1726 C1727 1.396 . S
C1726 C1731 1.390 . S
C1727 C1721 1.465 . S
C1727 C1726 1.396 . S
C1727 C1728 1.399 . S
C1728 H1714 0.929 . S
C1728 C1727 1.399 . S
C1728 C1729 1.385 . S
C1729 H1715 0.931 . S
C1729 C1728 1.385 . S
C1729 C1730 1.389 . S
C1730 C1729 1.389 . S
C1730 C1731 1.387 . S
C1731 H1716 0.930 . S
C1731 C1726 1.390 . S
C1731 C1730 1.387 . S
H1732 C1744 0.930 . S
H1733 C1746 0.930 . S
H1734 C1747 0.930 . S
H1735 C1751 0.959 . S
H1736 C1751 0.959 . S
H1737 C1751 0.961 . S
H1738 C1752 0.960 . S
H1739 C1752 0.961 . S
H1740 C1752 0.959 . S
H1741 C1755 0.929 . S
H1742 C1756 0.931 . S
H1743 C1758 0.930 . S
C1744 H1732 0.930 . S
C1744 C1745 1.399 . S
C1744 C1749 1.399 . S
C1745 C1744 1.399 . S
C1745 C1746 1.376 . S
C1746 H1733 0.930 . S
C1746 C1745 1.376 . S
C1746 C1747 1.388 . S
C1747 H1734 0.930 . S
C1747 C1746 1.388 . S
C1747 C1748 1.390 . S
C1748 C1747 1.390 . S
C1748 C1749 1.394 . S
C1748 C1754 1.465 . S
C1749 C1744 1.399 . S
C1749 C1748 1.394 . S
C1749 C1750 1.516 . S
C1750 C1749 1.516 . S
C1750 C1751 1.502 . S
C1750 C1752 1.561 . S
C1750 C1753 1.526 . S
C1751 H1735 0.959 . S
C1751 H1736 0.959 . S
C1751 H1737 0.961 . S
C1751 C1750 1.502 . S
C1752 H1738 0.960 . S
C1752 H1739 0.961 . S
C1752 H1740 0.959 . S
C1752 C1750 1.561 . S
C1753 C1750 1.526 . S
C1753 C1754 1.396 . S
C1753 C1758 1.390 . S
C1754 C1748 1.465 . S
C1754 C1753 1.396 . S
C1754 C1755 1.399 . S
C1755 H1741 0.929 . S
C1755 C1754 1.399 . S
C1755 C1756 1.385 . S
C1756 H1742 0.931 . S
C1756 C1755 1.385 . S
C1756 C1757 1.389 . S
C1757 C1756 1.389 . S
C1757 C1758 1.387 . S
C1758 H1743 0.930 . S
C1758 C1753 1.390 . S
C1758 C1757 1.387 . S
H1759 C1771 0.930 . S
H1760 C1773 0.930 . S
H1761 C1774 0.930 . S
H1762 C1778 0.959 . S
H1763 C1778 0.959 . S
H1764 C1778 0.961 . S
H1765 C1779 0.960 . S
H1766 C1779 0.961 . S
H1767 C1779 0.959 . S
H1768 C1782 0.929 . S
H1769 C1783 0.931 . S
H1770 C1785 0.930 . S
C1771 H1759 0.930 . S
C1771 C1772 1.399 . S
C1771 C1776 1.399 . S
C1772 C1771 1.399 . S
C1772 C1773 1.376 . S
C1773 H1760 0.930 . S
C1773 C1772 1.376 . S
C1773 C1774 1.388 . S
C1774 H1761 0.930 . S
C1774 C1773 1.388 . S
C1774 C1775 1.390 . S
C1775 C1774 1.390 . S
C1775 C1776 1.394 . S
C1775 C1781 1.465 . S
C1776 C1771 1.399 . S
C1776 C1775 1.394 . S
C1776 C1777 1.516 . S
C1777 C1776 1.516 . S
C1777 C1778 1.502 . S
C1777 C1779 1.561 . S
C1777 C1780 1.526 . S
C1778 H1762 0.959 . S
C1778 H1763 0.959 . S
C1778 H1764 0.961 . S
C1778 C1777 1.502 . S
C1779 H1765 0.960 . S
C1779 H1766 0.961 . S
C1779 H1767 0.959 . S
C1779 C1777 1.561 . S
C1780 C1777 1.526 . S
C1780 C1781 1.396 . S
C1780 C1785 1.390 . S
C1781 C1775 1.465 . S
C1781 C1780 1.396 . S
C1781 C1782 1.399 . S
C1782 H1768 0.929 . S
C1782 C1781 1.399 . S
C1782 C1783 1.385 . S
C1783 H1769 0.931 . S
C1783 C1782 1.385 . S
C1783 C1784 1.389 . S
C1784 C1783 1.389 . S
C1784 C1785 1.387 . S
C1785 H1770 0.930 . S
C1785 C1780 1.390 . S
C1785 C1784 1.387 . S
H1786 C1798 0.930 . S
H1787 C1800 0.930 . S
H1788 C1801 0.930 . S
H1789 C1805 0.959 . S
H1790 C1805 0.959 . S
H1791 C1805 0.961 . S
H1792 C1806 0.960 . S
H1793 C1806 0.961 . S
H1794 C1806 0.959 . S
H1795 C1809 0.959 . S
H1796 C1810 0.931 1_554 S
H1797 C1812 0.930 . S
C1798 H1786 0.930 . S
C1798 C1799 1.399 . S
C1798 C1803 1.399 . S
C1799 C1798 1.399 . S
C1799 C1800 1.376 . S
C1800 H1787 0.930 . S
C1800 C1799 1.376 . S
C1800 C1801 1.388 . S
C1801 H1788 0.930 . S
C1801 C1800 1.388 . S
C1801 C1802 1.390 . S
C1802 C1801 1.390 . S
C1802 C1803 1.394 . S
C1802 C1808 1.465 . S
C1803 C1798 1.399 . S
C1803 C1802 1.394 . S
C1803 C1804 1.516 . S
C1804 C1803 1.516 . S
C1804 C1805 1.502 . S
C1804 C1806 1.561 . S
C1804 C1807 1.526 . S
C1805 H1789 0.959 . S
C1805 H1790 0.959 . S
C1805 H1791 0.961 . S
C1805 C1804 1.502 . S
C1806 H1792 0.960 . S
C1806 H1793 0.961 . S
C1806 H1794 0.959 . S
C1806 C1804 1.561 . S
C1807 C1804 1.526 . S
C1807 C1808 1.396 . S
C1807 C1812 1.390 . S
C1808 C1802 1.465 . S
C1808 C1807 1.396 . S
C1808 C1809 1.399 . S
C1809 H1795 0.959 . S
C1809 C1808 1.399 . S
C1809 C1810 1.385 . S
C1810 H1796 0.931 1_556 S
C1810 C1809 1.385 . S
C1810 C1811 1.389 . S
C1811 C1810 1.389 . S
C1811 C1812 1.387 . S
C1812 H1797 0.930 . S
C1812 C1807 1.390 . S
C1812 C1811 1.387 . S
H1813 C1825 0.930 . S
H1814 C1827 0.930 . S
H1815 C1828 0.930 . S
H1816 C1832 0.959 . S
H1817 C1832 0.959 . S
H1818 C1832 0.961 . S
H1819 C1833 0.960 . S
H1820 C1833 0.961 . S
H1821 C1833 0.959 . S
H1822 C1836 0.929 . S
H1823 C1837 0.931 . S
H1824 C1839 0.930 . S
C1825 H1813 0.930 . S
C1825 C1826 1.399 . S
C1825 C1830 1.399 . S
C1826 C1825 1.399 . S
C1826 C1827 1.376 . S
C1827 H1814 0.930 . S
C1827 C1826 1.376 . S
C1827 C1828 1.388 . S
C1828 H1815 0.930 . S
C1828 C1827 1.388 . S
C1828 C1829 1.390 . S
C1829 C1828 1.390 . S
C1829 C1830 1.394 . S
C1829 C1835 1.465 . S
C1830 C1825 1.399 . S
C1830 C1829 1.394 . S
C1830 C1831 1.516 . S
C1831 C1830 1.516 . S
C1831 C1832 1.502 . S
C1831 C1833 1.561 . S
C1831 C1834 1.526 . S
C1832 H1816 0.959 . S
C1832 H1817 0.959 . S
C1832 H1818 0.961 . S
C1832 C1831 1.502 . S
C1833 H1819 0.960 . S
C1833 H1820 0.961 . S
C1833 H1821 0.959 . S
C1833 C1831 1.561 . S
C1834 C1831 1.526 . S
C1834 C1835 1.396 . S
C1834 C1839 1.390 . S
C1835 C1829 1.465 . S
C1835 C1834 1.396 . S
C1835 C1836 1.399 . S
C1836 H1822 0.929 . S
C1836 C1835 1.399 . S
C1836 C1837 1.385 . S
C1837 H1823 0.931 . S
C1837 C1836 1.385 . S
C1837 C1838 1.389 . S
C1838 C1837 1.389 . S
C1838 C1839 1.387 . S
C1839 H1824 0.930 . S
C1839 C1834 1.390 . S
C1839 C1838 1.387 . S
H1840 C1852 0.930 . S
H1841 C1854 0.930 . S
H1842 C1855 0.930 . S
H1843 C1859 0.959 . S
H1844 C1859 0.959 . S
H1845 C1859 0.961 . S
H1846 C1860 0.960 . S
H1847 C1860 0.961 . S
H1848 C1860 0.959 . S
H1849 C1863 0.929 . S
H1850 C1864 0.931 . S
H1851 C1866 0.930 . S
C1852 H1840 0.930 . S
C1852 C1853 1.399 . S
C1852 C1857 1.399 . S
C1853 C1852 1.399 . S
C1853 C1854 1.376 1_545 S
C1854 H1841 0.930 . S
C1854 C1853 1.376 1_565 S
C1854 C1855 1.388 . S
C1855 H1842 0.930 . S
C1855 C1854 1.388 . S
C1855 C1856 1.384 1_565 S
C1856 C1855 1.384 1_545 S
C1856 C1857 1.400 . S
C1856 C1862 1.465 . S
C1857 C1852 1.399 . S
C1857 C1856 1.400 . S
C1857 C1858 1.516 . S
C1858 C1857 1.516 . S
C1858 C1859 1.502 . S
C1858 C1860 1.561 . S
C1858 C1861 1.526 . S
C1859 H1843 0.959 . S
C1859 H1844 0.959 . S
C1859 H1845 0.961 . S
C1859 C1858 1.502 . S
C1860 H1846 0.960 . S
C1860 H1847 0.961 . S
C1860 H1848 0.959 . S
C1860 C1858 1.561 . S
C1861 C1858 1.526 . S
C1861 C1862 1.396 . S
C1861 C1866 1.390 . S
C1862 C1856 1.465 . S
C1862 C1861 1.396 . S
C1862 C1863 1.399 1_545 S
C1863 H1849 0.929 . S
C1863 C1862 1.399 1_565 S
C1863 C1864 1.385 . S
C1864 H1850 0.931 . S
C1864 C1863 1.385 . S
C1864 C1865 1.389 1_565 S
C1865 C1864 1.389 1_545 S
C1865 C1866 1.387 . S
C1866 H1851 0.930 . S
C1866 C1861 1.390 . S
C1866 C1865 1.387 . S
H1867 C1879 0.930 . S
H1868 C1881 0.930 . S
H1869 C1882 0.930 . S
H1870 C1886 0.959 . S
H1871 C1886 0.959 . S
H1872 C1886 0.961 . S
H1873 C1887 0.960 . S
H1874 C1887 0.961 . S
H1875 C1887 0.959 . S
H1876 C1890 0.929 . S
H1877 C1891 0.931 . S
H1878 C1893 0.930 . S
C1879 H1867 0.930 . S
C1879 C1880 1.399 . S
C1879 C1884 1.399 . S
C1880 C1879 1.399 . S
C1880 C1881 1.376 . S
C1881 H1868 0.930 . S
C1881 C1880 1.376 . S
C1881 C1882 1.388 . S
C1882 H1869 0.930 . S
C1882 C1881 1.388 . S
C1882 C1883 1.390 . S
C1883 C1882 1.390 . S
C1883 C1884 1.394 . S
C1883 C1889 1.465 . S
C1884 C1879 1.399 . S
C1884 C1883 1.394 . S
C1884 C1885 1.516 . S
C1885 C1884 1.516 . S
C1885 C1886 1.502 . S
C1885 C1887 1.561 . S
C1885 C1888 1.526 . S
C1886 H1870 0.959 . S
C1886 H1871 0.959 . S
C1886 H1872 0.961 . S
C1886 C1885 1.502 . S
C1887 H1873 0.960 . S
C1887 H1874 0.961 . S
C1887 H1875 0.959 . S
C1887 C1885 1.561 . S
C1888 C1885 1.526 . S
C1888 C1889 1.396 . S
C1888 C1893 1.390 . S
C1889 C1883 1.465 . S
C1889 C1888 1.396 . S
C1889 C1890 1.399 . S
C1890 H1876 0.929 . S
C1890 C1889 1.399 . S
C1890 C1891 1.385 . S
C1891 H1877 0.931 . S
C1891 C1890 1.385 . S
C1891 C1892 1.389 . S
C1892 C1891 1.389 . S
C1892 C1893 1.387 . S
C1893 H1878 0.930 . S
C1893 C1888 1.390 . S
C1893 C1892 1.387 . S
H1894 C1906 0.930 . S
H1895 C1908 0.930 . S
H1896 C1909 0.930 . S
H1897 C1913 0.959 . S
H1898 C1913 0.959 . S
H1899 C1913 0.961 . S
H1900 C1914 0.960 . S
H1901 C1914 0.961 . S
H1902 C1914 0.959 . S
H1903 C1917 0.929 . S
H1904 C1918 0.931 1_565 S
H1905 C1920 0.930 . S
C1906 H1894 0.930 . S
C1906 C1907 1.399 . S
C1906 C1911 1.399 . S
C1907 C1906 1.399 . S
C1907 C1908 1.376 1_545 S
C1908 H1895 0.930 . S
C1908 C1907 1.376 1_565 S
C1908 C1909 1.388 . S
C1909 H1896 0.930 . S
C1909 C1908 1.388 . S
C1909 C1910 1.390 1_565 S
C1910 C1909 1.390 1_545 S
C1910 C1911 1.394 . S
C1910 C1916 1.465 . S
C1911 C1906 1.399 . S
C1911 C1910 1.394 . S
C1911 C1912 1.516 . S
C1912 C1911 1.516 . S
C1912 C1913 1.502 . S
C1912 C1914 1.561 . S
C1912 C1915 1.526 . S
C1913 H1897 0.959 . S
C1913 H1898 0.959 . S
C1913 H1899 0.961 . S
C1913 C1912 1.502 . S
C1914 H1900 0.960 . S
C1914 H1901 0.961 . S
C1914 H1902 0.959 . S
C1914 C1912 1.561 . S
C1915 C1912 1.526 . S
C1915 C1916 1.396 . S
C1915 C1920 1.390 . S
C1916 C1910 1.465 . S
C1916 C1915 1.396 . S
C1916 C1917 1.399 1_545 S
C1917 H1903 0.929 . S
C1917 C1916 1.399 1_565 S
C1917 C1918 1.385 1_565 S
C1918 H1904 0.931 1_545 S
C1918 C1917 1.385 1_545 S
C1918 C1919 1.389 . S
C1919 C1918 1.389 . S
C1919 C1920 1.387 . S
C1920 H1905 0.930 . S
C1920 C1915 1.390 . S
C1920 C1919 1.387 . S
H1921 C1933 0.930 . S
H1922 C1935 0.930 . S
H1923 C1936 0.930 . S
H1924 C1940 0.959 . S
H1925 C1940 0.959 . S
H1926 C1940 0.961 . S
H1927 C1941 0.960 . S
H1928 C1941 0.961 . S
H1929 C1941 0.959 . S
H1930 C1944 0.929 . S
H1931 C1945 0.931 . S
H1932 C1947 0.930 . S
C1933 H1921 0.930 . S
C1933 C1934 1.399 . S
C1933 C1938 1.399 . S
C1934 C1933 1.399 . S
C1934 C1935 1.376 . S
C1935 H1922 0.930 . S
C1935 C1934 1.376 . S
C1935 C1936 1.388 . S
C1936 H1923 0.930 . S
C1936 C1935 1.388 . S
C1936 C1937 1.390 . S
C1937 C1936 1.390 . S
C1937 C1938 1.394 . S
C1937 C1943 1.465 . S
C1938 C1933 1.399 . S
C1938 C1937 1.394 . S
C1938 C1939 1.516 . S
C1939 C1938 1.516 . S
C1939 C1940 1.502 . S
C1939 C1941 1.561 . S
C1939 C1942 1.526 . S
C1940 H1924 0.959 . S
C1940 H1925 0.959 . S
C1940 H1926 0.961 . S
C1940 C1939 1.502 . S
C1941 H1927 0.960 . S
C1941 H1928 0.961 . S
C1941 H1929 0.959 . S
C1941 C1939 1.561 . S
C1942 C1939 1.526 . S
C1942 C1943 1.396 . S
C1942 C1947 1.390 . S
C1943 C1937 1.465 . S
C1943 C1942 1.396 . S
C1943 C1944 1.399 . S
C1944 H1930 0.929 . S
C1944 C1943 1.399 . S
C1944 C1945 1.385 . S
C1945 H1931 0.931 . S
C1945 C1944 1.385 . S
C1945 C1946 1.389 . S
C1946 C1945 1.389 . S
C1946 C1947 1.387 . S
C1947 H1932 0.930 . S
C1947 C1942 1.390 . S
C1947 C1946 1.387 . S
H1948 C1960 0.930 . S
H1949 C1962 0.930 . S
H1950 C1963 0.930 . S
H1951 C1967 0.959 1_545 S
H1952 C1967 0.959 . S
H1953 C1967 0.961 . S
H1954 C1968 0.960 . S
H1955 C1968 0.961 . S
H1956 C1968 0.959 . S
H1957 C1971 0.929 . S
H1958 C1972 0.931 . S
H1959 C1974 0.930 1_565 S
C1960 H1948 0.930 . S
C1960 C1961 1.398 1_565 S
C1960 C1965 1.399 . S
C1961 C1960 1.398 1_545 S
C1961 C1962 1.379 . S
C1962 H1949 0.930 . S
C1962 C1961 1.379 . S
C1962 C1963 1.388 . S
C1963 H1950 0.930 . S
C1963 C1962 1.388 . S
C1963 C1964 1.390 . S
C1964 C1963 1.390 . S
C1964 C1965 1.394 1_545 S
C1964 C1970 1.465 . S
C1965 C1960 1.399 . S
C1965 C1964 1.394 1_565 S
C1965 C1966 1.516 . S
C1966 C1965 1.516 . S
C1966 C1967 1.502 . S
C1966 C1968 1.561 . S
C1966 C1969 1.526 1_565 S
C1967 H1951 0.959 1_565 S
C1967 H1952 0.959 . S
C1967 H1953 0.961 . S
C1967 C1966 1.502 . S
C1968 H1954 0.960 . S
C1968 H1955 0.961 . S
C1968 H1956 0.959 . S
C1968 C1966 1.561 . S
C1969 C1966 1.526 1_545 S
C1969 C1970 1.396 . S
C1969 C1974 1.390 . S
C1970 C1964 1.465 . S
C1970 C1969 1.396 . S
C1970 C1971 1.399 . S
C1971 H1957 0.929 . S
C1971 C1970 1.399 . S
C1971 C1972 1.385 . S
C1972 H1958 0.931 . S
C1972 C1971 1.385 . S
C1972 C1973 1.389 . S
C1973 C1972 1.389 . S
C1973 C1974 1.387 . S
C1974 H1959 0.930 1_545 S
C1974 C1969 1.390 . S
C1974 C1973 1.387 . S
H1975 C1987 0.930 . S
H1976 C1989 0.930 . S
H1977 C1990 0.930 . S
H1978 C1994 0.959 . S
H1979 C1994 0.959 . S
H1980 C1994 0.961 . S
H1981 C1995 0.960 . S
H1982 C1995 0.961 . S
H1983 C1995 0.959 . S
H1984 C1998 0.929 . S
H1985 C1999 0.931 . S
H1986 C2001 0.930 . S
C1987 H1975 0.930 . S
C1987 C1988 1.399 . S
C1987 C1992 1.399 . S
C1988 C1987 1.399 . S
C1988 C1989 1.376 . S
C1989 H1976 0.930 . S
C1989 C1988 1.376 . S
C1989 C1990 1.388 . S
C1990 H1977 0.930 . S
C1990 C1989 1.388 . S
C1990 C1991 1.390 . S
C1991 C1990 1.390 . S
C1991 C1992 1.394 . S
C1991 C1997 1.465 . S
C1992 C1987 1.399 . S
C1992 C1991 1.394 . S
C1992 C1993 1.516 . S
C1993 C1992 1.516 . S
C1993 C1994 1.502 . S
C1993 C1995 1.561 . S
C1993 C1996 1.526 . S
C1994 H1978 0.959 . S
C1994 H1979 0.959 . S
C1994 H1980 0.961 . S
C1994 C1993 1.502 . S
C1995 H1981 0.960 . S
C1995 H1982 0.961 . S
C1995 H1983 0.959 . S
C1995 C1993 1.561 . S
C1996 C1993 1.526 . S
C1996 C1997 1.396 . S
C1996 C2001 1.390 . S
C1997 C1991 1.465 . S
C1997 C1996 1.396 . S
C1997 C1998 1.399 . S
C1998 H1984 0.929 . S
C1998 C1997 1.399 . S
C1998 C1999 1.385 . S
C1999 H1985 0.931 . S
C1999 C1998 1.385 . S
C1999 C2000 1.389 . S
C2000 C1999 1.389 . S
C2000 C2001 1.387 . S
C2001 H1986 0.930 . S
C2001 C1996 1.390 . S
C2001 C2000 1.387 . S
H2002 C2014 0.930 . S
H2003 C2016 0.930 . S
H2004 C2017 0.930 . S
H2005 C2021 0.959 . S
H2006 C2021 0.959 . S
H2007 C2021 0.961 . S
H2008 C2022 0.960 . S
H2009 C2022 0.961 . S
H2010 C2022 0.959 . S
H2011 C2025 0.929 . S
H2012 C2026 0.931 . S
H2013 C2028 0.930 . S
C2014 H2002 0.930 . S
C2014 C2015 1.399 1_565 S
C2014 C2019 1.399 . S
C2015 C2014 1.399 1_545 S
C2015 C2016 1.376 . S
C2016 H2003 0.930 . S
C2016 C2015 1.376 . S
C2016 C2017 1.388 . S
C2017 H2004 0.930 . S
C2017 C2016 1.388 . S
C2017 C2018 1.390 . S
C2018 C2017 1.390 . S
C2018 C2019 1.394 1_545 S
C2018 C2024 1.468 . S
C2019 C2014 1.399 . S
C2019 C2018 1.394 1_565 S
C2019 C2020 1.516 . S
C2020 C2019 1.516 . S
C2020 C2021 1.502 . S
C2020 C2022 1.561 . S
C2020 C2023 1.526 . S
C2021 H2005 0.959 . S
C2021 H2006 0.959 . S
C2021 H2007 0.961 . S
C2021 C2020 1.502 . S
C2022 H2008 0.960 . S
C2022 H2009 0.961 . S
C2022 H2010 0.959 . S
C2022 C2020 1.561 . S
C2023 C2020 1.526 . S
C2023 C2024 1.363 1_565 S
C2023 C2028 1.390 . S
C2024 C2018 1.468 . S
C2024 C2023 1.363 1_545 S
C2024 C2025 1.423 . S
C2025 H2011 0.929 . S
C2025 C2024 1.423 . S
C2025 C2026 1.385 . S
C2026 H2012 0.931 . S
C2026 C2025 1.385 . S
C2026 C2027 1.389 1_545 S
C2027 C2026 1.389 1_565 S
C2027 C2028 1.387 . S
C2028 H2013 0.930 . S
C2028 C2023 1.390 . S
C2028 C2027 1.387 . S
H2029 C2041 0.930 . S
H2030 C2043 0.930 . S
H2031 C2044 0.930 . S
H2032 C2048 0.959 . S
H2033 C2048 0.959 . S
H2034 C2048 0.961 . S
H2035 C2049 0.960 . S
H2036 C2049 0.961 . S
H2037 C2049 0.959 . S
H2038 C2052 0.929 . S
H2039 C2053 0.931 . S
H2040 C2055 0.930 . S
C2041 H2029 0.930 . S
C2041 C2042 1.399 . S
C2041 C2046 1.399 . S
C2042 C2041 1.399 . S
C2042 C2043 1.376 . S
C2043 H2030 0.930 . S
C2043 C2042 1.376 . S
C2043 C2044 1.388 . S
C2044 H2031 0.930 . S
C2044 C2043 1.388 . S
C2044 C2045 1.390 . S
C2045 C2044 1.390 . S
C2045 C2046 1.394 . S
C2045 C2051 1.465 . S
C2046 C2041 1.399 . S
C2046 C2045 1.394 . S
C2046 C2047 1.516 . S
C2047 C2046 1.516 . S
C2047 C2048 1.502 . S
C2047 C2049 1.561 . S
C2047 C2050 1.526 . S
C2048 H2032 0.959 . S
C2048 H2033 0.959 . S
C2048 H2034 0.961 . S
C2048 C2047 1.502 . S
C2049 H2035 0.960 . S
C2049 H2036 0.961 . S
C2049 H2037 0.959 . S
C2049 C2047 1.561 . S
C2050 C2047 1.526 . S
C2050 C2051 1.396 . S
C2050 C2055 1.390 . S
C2051 C2045 1.465 . S
C2051 C2050 1.396 . S
C2051 C2052 1.399 . S
C2052 H2038 0.929 . S
C2052 C2051 1.399 . S
C2052 C2053 1.385 . S
C2053 H2039 0.931 . S
C2053 C2052 1.385 . S
C2053 C2054 1.389 . S
C2054 C2053 1.389 . S
C2054 C2055 1.387 . S
C2055 H2040 0.930 . S
C2055 C2050 1.390 . S
C2055 C2054 1.387 . S
H2056 C2068 0.930 . S
H2057 C2070 0.930 . S
H2058 C2071 0.930 . S
H2059 C2075 0.959 . S
H2060 C2075 0.959 . S
H2061 C2075 0.961 . S
H2062 C2076 0.960 . S
H2063 C2076 0.961 . S
H2064 C2076 0.959 . S
H2065 C2079 0.929 . S
H2066 C2080 0.931 . S
H2067 C2082 0.930 1_554 S
C2068 H2056 0.930 . S
C2068 C2069 1.399 . S
C2068 C2073 1.399 . S
C2069 C2068 1.399 . S
C2069 C2070 1.376 1_554 S
C2070 H2057 0.930 . S
C2070 C2069 1.376 1_556 S
C2070 C2071 1.388 . S
C2071 H2058 0.930 . S
C2071 C2070 1.388 . S
C2071 C2072 1.390 . S
C2072 C2071 1.390 . S
C2072 C2073 1.394 1_556 S
C2072 C2078 1.465 . S
C2073 C2068 1.399 . S
C2073 C2072 1.394 1_554 S
C2073 C2074 1.516 . S
C2074 C2073 1.516 . S
C2074 C2075 1.502 . S
C2074 C2076 1.561 . S
C2074 C2077 1.555 . S
C2075 H2059 0.959 . S
C2075 H2060 0.959 . S
C2075 H2061 0.961 . S
C2075 C2074 1.502 . S
C2076 H2062 0.960 . S
C2076 H2063 0.961 . S
C2076 H2064 0.959 . S
C2076 C2074 1.561 . S
C2077 C2074 1.555 . S
C2077 C2078 1.371 1_554 S
C2077 C2082 1.384 1_554 S
C2078 C2072 1.465 . S
C2078 C2077 1.371 1_556 S
C2078 C2079 1.399 . S
C2079 H2065 0.929 . S
C2079 C2078 1.399 . S
C2079 C2080 1.385 . S
C2080 H2066 0.931 . S
C2080 C2079 1.385 . S
C2080 C2081 1.389 . S
C2081 C2080 1.389 . S
C2081 C2082 1.387 . S
C2082 H2067 0.930 1_556 S
C2082 C2077 1.384 1_556 S
C2082 C2081 1.387 . S
H2083 C2095 0.930 . S
H2084 C2097 0.930 1_556 S
H2085 C2098 0.930 . S
H2086 C2102 0.959 . S
H2087 C2102 0.959 . S
H2088 C2102 0.961 . S
H2089 C2103 0.960 . S
H2090 C2103 0.961 . S
H2091 C2103 0.959 . S
H2092 C2106 0.929 . S
H2093 C2107 0.931 . S
H2094 C2109 0.930 . S
C2095 H2083 0.930 . S
C2095 C2096 1.399 . S
C2095 C2100 1.399 . S
C2096 C2095 1.399 . S
C2096 C2097 1.376 . S
C2097 H2084 0.930 1_554 S
C2097 C2096 1.376 . S
C2097 C2098 1.388 1_554 S
C2098 H2085 0.930 . S
C2098 C2097 1.388 1_556 S
C2098 C2099 1.390 1_556 S
C2099 C2098 1.390 1_554 S
C2099 C2100 1.394 . S
C2099 C2105 1.465 . S
C2100 C2095 1.399 . S
C2100 C2099 1.394 . S
C2100 C2101 1.516 . S
C2101 C2100 1.516 . S
C2101 C2102 1.502 . S
C2101 C2103 1.561 . S
C2101 C2104 1.526 . S
C2102 H2086 0.959 . S
C2102 H2087 0.959 . S
C2102 H2088 0.961 . S
C2102 C2101 1.502 . S
C2103 H2089 0.960 . S
C2103 H2090 0.961 . S
C2103 H2091 0.959 . S
C2103 C2101 1.561 . S
C2104 C2101 1.526 . S
C2104 C2105 1.396 . S
C2104 C2109 1.390 . S
C2105 C2099 1.465 . S
C2105 C2104 1.396 . S
C2105 C2106 1.399 1_554 S
C2106 H2092 0.929 . S
C2106 C2105 1.399 1_556 S
C2106 C2107 1.385 . S
C2107 H2093 0.931 . S
C2107 C2106 1.385 . S
C2107 C2108 1.389 1_556 S
C2108 C2107 1.389 1_554 S
C2108 C2109 1.387 . S
C2109 H2094 0.930 . S
C2109 C2104 1.390 . S
C2109 C2108 1.387 . S
H2110 C2122 0.930 . S
H2111 C2124 0.930 . S
H2112 C2125 0.930 . S
H2113 C2129 0.959 . S
H2114 C2129 0.959 . S
H2115 C2129 0.961 . S
H2116 C2130 0.960 . S
H2117 C2130 0.961 . S
H2118 C2130 0.959 . S
H2119 C2133 0.929 . S
H2120 C2134 0.931 . S
H2121 C2136 0.930 . S
C2122 H2110 0.930 . S
C2122 C2123 1.399 . S
C2122 C2127 1.399 . S
C2123 C2122 1.399 . S
C2123 C2124 1.376 . S
C2124 H2111 0.930 . S
C2124 C2123 1.376 . S
C2124 C2125 1.388 . S
C2125 H2112 0.930 . S
C2125 C2124 1.388 . S
C2125 C2126 1.390 . S
C2126 C2125 1.390 . S
C2126 C2127 1.394 . S
C2126 C2132 1.465 . S
C2127 C2122 1.399 . S
C2127 C2126 1.394 . S
C2127 C2128 1.516 . S
C2128 C2127 1.516 . S
C2128 C2129 1.502 . S
C2128 C2130 1.561 . S
C2128 C2131 1.526 . S
C2129 H2113 0.959 . S
C2129 H2114 0.959 . S
C2129 H2115 0.961 . S
C2129 C2128 1.502 . S
C2130 H2116 0.960 . S
C2130 H2117 0.961 . S
C2130 H2118 0.959 . S
C2130 C2128 1.561 . S
C2131 C2128 1.526 . S
C2131 C2132 1.396 . S
C2131 C2136 1.390 . S
C2132 C2126 1.465 . S
C2132 C2131 1.396 . S
C2132 C2133 1.399 . S
C2133 H2119 0.929 . S
C2133 C2132 1.399 . S
C2133 C2134 1.385 . S
C2134 H2120 0.931 . S
C2134 C2133 1.385 . S
C2134 C2135 1.389 . S
C2135 C2134 1.389 . S
C2135 C2136 1.387 . S
C2136 H2121 0.930 . S
C2136 C2131 1.390 . S
C2136 C2135 1.387 . S
H2137 C2149 0.930 . S
H2138 C2151 0.930 . S
H2139 C2152 0.930 . S
H2140 C2156 0.959 . S
H2141 C2156 0.959 . S
H2142 C2156 0.961 . S
H2143 C2157 0.960 . S
H2144 C2157 0.961 . S
H2145 C2157 0.959 . S
H2146 C2160 0.929 . S
H2147 C2161 0.931 . S
H2148 C2163 0.930 . S
C2149 H2137 0.930 . S
C2149 C2150 1.399 . S
C2149 C2154 1.399 . S
C2150 C2149 1.399 . S
C2150 C2151 1.376 . S
C2151 H2138 0.930 . S
C2151 C2150 1.376 . S
C2151 C2152 1.388 . S
C2152 H2139 0.930 . S
C2152 C2151 1.388 . S
C2152 C2153 1.390 . S
C2153 C2152 1.390 . S
C2153 C2154 1.394 . S
C2153 C2159 1.465 . S
C2154 C2149 1.399 . S
C2154 C2153 1.394 . S
C2154 C2155 1.516 . S
C2155 C2154 1.516 . S
C2155 C2156 1.502 . S
C2155 C2157 1.561 . S
C2155 C2158 1.526 . S
C2156 H2140 0.959 . S
C2156 H2141 0.959 . S
C2156 H2142 0.961 . S
C2156 C2155 1.502 . S
C2157 H2143 0.960 . S
C2157 H2144 0.961 . S
C2157 H2145 0.959 . S
C2157 C2155 1.561 . S
C2158 C2155 1.526 . S
C2158 C2159 1.396 . S
C2158 C2163 1.390 . S
C2159 C2153 1.465 . S
C2159 C2158 1.396 . S
C2159 C2160 1.399 . S
C2160 H2146 0.929 . S
C2160 C2159 1.399 . S
C2160 C2161 1.385 . S
C2161 H2147 0.931 . S
C2161 C2160 1.385 . S
C2161 C2162 1.389 . S
C2162 C2161 1.389 . S
C2162 C2163 1.387 . S
C2163 H2148 0.930 . S
C2163 C2158 1.390 . S
C2163 C2162 1.387 . S
H2164 C2176 0.930 . S
H2165 C2178 0.930 . S
H2166 C2179 0.930 . S
H2167 C2183 0.959 . S
H2168 C2183 0.959 . S
H2169 C2183 0.961 . S
H2170 C2184 0.960 1_545 S
H2171 C2184 0.961 . S
H2172 C2184 0.959 . S
H2173 C2187 0.929 . S
H2174 C2188 0.931 . S
H2175 C2190 0.930 . S
C2176 H2164 0.930 . S
C2176 C2177 1.399 . S
C2176 C2181 1.399 1_545 S
C2177 C2176 1.399 . S
C2177 C2178 1.376 1_545 S
C2178 H2165 0.930 . S
C2178 C2177 1.376 1_565 S
C2178 C2179 1.388 . S
C2179 H2166 0.930 . S
C2179 C2178 1.388 . S
C2179 C2180 1.390 . S
C2180 C2179 1.390 . S
C2180 C2181 1.394 . S
C2180 C2186 1.465 . S
C2181 C2176 1.399 1_565 S
C2181 C2180 1.394 . S
C2181 C2182 1.516 . S
C2182 C2181 1.516 . S
C2182 C2183 1.502 1_565 S
C2182 C2184 1.561 . S
C2182 C2185 1.526 . S
C2183 H2167 0.959 . S
C2183 H2168 0.959 . S
C2183 H2169 0.961 . S
C2183 C2182 1.502 1_545 S
C2184 H2170 0.960 1_565 S
C2184 H2171 0.961 . S
C2184 H2172 0.959 . S
C2184 C2182 1.561 . S
C2185 C2182 1.526 . S
C2185 C2186 1.396 . S
C2185 C2190 1.390 . S
C2186 C2180 1.465 . S
C2186 C2185 1.396 . S
C2186 C2187 1.399 . S
C2187 H2173 0.929 . S
C2187 C2186 1.399 . S
C2187 C2188 1.385 . S
C2188 H2174 0.931 . S
C2188 C2187 1.385 . S
C2188 C2189 1.389 . S
C2189 C2188 1.389 . S
C2189 C2190 1.387 . S
C2190 H2175 0.930 . S
C2190 C2185 1.390 . S
C2190 C2189 1.387 . S
H2191 C2203 0.930 . S
H2192 C2205 0.930 . S
H2193 C2206 0.930 . S
H2194 C2210 0.959 . S
H2195 C2210 0.959 . S
H2196 C2210 0.961 . S
H2197 C2211 0.960 . S
H2198 C2211 0.961 . S
H2199 C2211 0.959 . S
H2200 C2214 0.929 . S
H2201 C2215 0.931 . S
H2202 C2217 0.930 . S
C2203 H2191 0.930 . S
C2203 C2204 1.399 . S
C2203 C2208 1.399 . S
C2204 C2203 1.399 . S
C2204 C2205 1.376 . S
C2205 H2192 0.930 . S
C2205 C2204 1.376 . S
C2205 C2206 1.388 . S
C2206 H2193 0.930 . S
C2206 C2205 1.388 . S
C2206 C2207 1.390 . S
C2207 C2206 1.390 . S
C2207 C2208 1.394 . S
C2207 C2213 1.465 . S
C2208 C2203 1.399 . S
C2208 C2207 1.394 . S
C2208 C2209 1.516 . S
C2209 C2208 1.516 . S
C2209 C2210 1.502 . S
C2209 C2211 1.561 . S
C2209 C2212 1.526 . S
C2210 H2194 0.959 . S
C2210 H2195 0.959 . S
C2210 H2196 0.961 . S
C2210 C2209 1.502 . S
C2211 H2197 0.960 . S
C2211 H2198 0.961 . S
C2211 H2199 0.959 . S
C2211 C2209 1.561 . S
C2212 C2209 1.526 . S
C2212 C2213 1.396 . S
C2212 C2217 1.390 . S
C2213 C2207 1.465 . S
C2213 C2212 1.396 . S
C2213 C2214 1.399 . S
C2214 H2200 0.929 . S
C2214 C2213 1.399 . S
C2214 C2215 1.385 . S
C2215 H2201 0.931 . S
C2215 C2214 1.385 . S
C2215 C2216 1.389 . S
C2216 C2215 1.389 . S
C2216 C2217 1.387 . S
C2217 H2202 0.930 . S
C2217 C2212 1.390 . S
C2217 C2216 1.387 . S
H2218 C2230 0.930 . S
H2219 C2232 0.930 . S
H2220 C2233 0.930 . S
H2221 C2237 0.959 . S
H2222 C2237 0.959 . S
H2223 C2237 0.961 . S
H2224 C2238 0.960 . S
H2225 C2238 0.961 . S
H2226 C2238 0.959 . S
H2227 C2241 0.929 . S
H2228 C2242 0.931 . S
H2229 C2244 0.930 . S
C2230 H2218 0.930 . S
C2230 C2231 1.399 . S
C2230 C2235 1.399 . S
C2231 C2230 1.399 . S
C2231 C2232 1.376 . S
C2232 H2219 0.930 . S
C2232 C2231 1.376 . S
C2232 C2233 1.388 . S
C2233 H2220 0.930 . S
C2233 C2232 1.388 . S
C2233 C2234 1.390 . S
C2234 C2233 1.390 . S
C2234 C2235 1.394 . S
C2234 C2240 1.465 . S
C2235 C2230 1.399 . S
C2235 C2234 1.394 . S
C2235 C2236 1.516 . S
C2236 C2235 1.516 . S
C2236 C2237 1.502 . S
C2236 C2238 1.561 . S
C2236 C2239 1.526 . S
C2237 H2221 0.959 . S
C2237 H2222 0.959 . S
C2237 H2223 0.961 . S
C2237 C2236 1.502 . S
C2238 H2224 0.960 . S
C2238 H2225 0.961 . S
C2238 H2226 0.959 . S
C2238 C2236 1.561 . S
C2239 C2236 1.526 . S
C2239 C2240 1.396 . S
C2239 C2244 1.390 . S
C2240 C2234 1.465 . S
C2240 C2239 1.396 . S
C2240 C2241 1.399 . S
C2241 H2227 0.929 . S
C2241 C2240 1.399 . S
C2241 C2242 1.385 . S
C2242 H2228 0.931 . S
C2242 C2241 1.385 . S
C2242 C2243 1.389 . S
C2243 C2242 1.389 . S
C2243 C2244 1.387 . S
C2244 H2229 0.930 . S
C2244 C2239 1.390 . S
C2244 C2243 1.387 . S
H2245 C2257 0.930 . S
H2246 C2259 0.930 . S
H2247 C2260 0.930 . S
H2248 C2264 0.959 . S
H2249 C2264 0.959 . S
H2250 C2264 0.961 . S
H2251 C2265 0.960 . S
H2252 C2265 0.961 . S
H2253 C2265 0.959 . S
H2254 C2268 0.929 . S
H2255 C2269 0.931 . S
H2256 C2271 0.930 . S
C2257 H2245 0.930 . S
C2257 C2258 1.399 . S
C2257 C2262 1.399 . S
C2258 C2257 1.399 . S
C2258 C2259 1.376 . S
C2259 H2246 0.930 . S
C2259 C2258 1.376 . S
C2259 C2260 1.388 . S
C2260 H2247 0.930 . S
C2260 C2259 1.388 . S
C2260 C2261 1.390 . S
C2261 C2260 1.390 . S
C2261 C2262 1.394 . S
C2261 C2267 1.465 . S
C2262 C2257 1.399 . S
C2262 C2261 1.394 . S
C2262 C2263 1.516 . S
C2263 C2262 1.516 . S
C2263 C2264 1.502 . S
C2263 C2265 1.561 . S
C2263 C2266 1.526 . S
C2264 H2248 0.959 . S
C2264 H2249 0.959 . S
C2264 H2250 0.961 . S
C2264 C2263 1.502 . S
C2265 H2251 0.960 . S
C2265 H2252 0.961 . S
C2265 H2253 0.959 . S
C2265 C2263 1.561 . S
C2266 C2263 1.526 . S
C2266 C2267 1.396 . S
C2266 C2271 1.390 . S
C2267 C2261 1.465 . S
C2267 C2266 1.396 . S
C2267 C2268 1.399 . S
C2268 H2254 0.929 . S
C2268 C2267 1.399 . S
C2268 C2269 1.385 . S
C2269 H2255 0.931 . S
C2269 C2268 1.385 . S
C2269 C2270 1.389 . S
C2270 C2269 1.389 . S
C2270 C2271 1.387 . S
C2271 H2256 0.930 . S
C2271 C2266 1.390 . S
C2271 C2270 1.387 . S
H2272 C2284 0.930 . S
H2273 C2286 0.930 . S
H2274 C2287 0.930 . S
H2275 C2291 0.959 . S
H2276 C2291 0.959 . S
H2277 C2291 0.961 . S
H2278 C2292 0.960 . S
H2279 C2292 0.961 . S
H2280 C2292 0.959 . S
H2281 C2295 0.929 . S
H2282 C2296 0.931 . S
H2283 C2298 0.930 . S
C2284 H2272 0.930 . S
C2284 C2285 1.399 . S
C2284 C2289 1.399 . S
C2285 C2284 1.399 . S
C2285 C2286 1.376 . S
C2286 H2273 0.930 . S
C2286 C2285 1.376 . S
C2286 C2287 1.388 . S
C2287 H2274 0.930 . S
C2287 C2286 1.388 . S
C2287 C2288 1.390 . S
C2288 C2287 1.390 . S
C2288 C2289 1.394 . S
C2288 C2294 1.465 . S
C2289 C2284 1.399 . S
C2289 C2288 1.394 . S
C2289 C2290 1.516 . S
C2290 C2289 1.516 . S
C2290 C2291 1.502 . S
C2290 C2292 1.561 . S
C2290 C2293 1.526 . S
C2291 H2275 0.959 . S
C2291 H2276 0.959 . S
C2291 H2277 0.961 . S
C2291 C2290 1.502 . S
C2292 H2278 0.960 . S
C2292 H2279 0.961 . S
C2292 H2280 0.959 . S
C2292 C2290 1.561 . S
C2293 C2290 1.526 . S
C2293 C2294 1.396 . S
C2293 C2298 1.390 . S
C2294 C2288 1.465 . S
C2294 C2293 1.396 . S
C2294 C2295 1.399 . S
C2295 H2281 0.929 . S
C2295 C2294 1.399 . S
C2295 C2296 1.385 . S
C2296 H2282 0.931 . S
C2296 C2295 1.385 . S
C2296 C2297 1.389 . S
C2297 C2296 1.389 . S
C2297 C2298 1.387 . S
C2298 H2283 0.930 . S
C2298 C2293 1.390 . S
C2298 C2297 1.387 . S
H2299 C2311 0.930 . S
H2300 C2313 0.930 . S
H2301 C2314 0.930 . S
H2302 C2318 0.959 . S
H2303 C2318 0.959 . S
H2304 C2318 0.961 . S
H2305 C2319 0.960 . S
H2306 C2319 0.961 . S
H2307 C2319 0.959 . S
H2308 C2322 0.929 . S
H2309 C2323 0.931 . S
H2310 C2325 0.930 . S
C2311 H2299 0.930 . S
C2311 C2312 1.399 . S
C2311 C2316 1.399 . S
C2312 C2311 1.399 . S
C2312 C2313 1.376 . S
C2313 H2300 0.930 . S
C2313 C2312 1.376 . S
C2313 C2314 1.388 . S
C2314 H2301 0.930 . S
C2314 C2313 1.388 . S
C2314 C2315 1.390 . S
C2315 C2314 1.390 . S
C2315 C2316 1.394 . S
C2315 C2321 1.465 . S
C2316 C2311 1.399 . S
C2316 C2315 1.394 . S
C2316 C2317 1.516 . S
C2317 C2316 1.516 . S
C2317 C2318 1.502 . S
C2317 C2319 1.561 . S
C2317 C2320 1.526 . S
C2318 H2302 0.959 . S
C2318 H2303 0.959 . S
C2318 H2304 0.961 . S
C2318 C2317 1.502 . S
C2319 H2305 0.960 . S
C2319 H2306 0.961 . S
C2319 H2307 0.959 . S
C2319 C2317 1.561 . S
C2320 C2317 1.526 . S
C2320 C2321 1.396 . S
C2320 C2325 1.390 . S
C2321 C2315 1.465 . S
C2321 C2320 1.396 . S
C2321 C2322 1.399 . S
C2322 H2308 0.929 . S
C2322 C2321 1.399 . S
C2322 C2323 1.385 . S
C2323 H2309 0.931 . S
C2323 C2322 1.385 . S
C2323 C2324 1.389 . S
C2324 C2323 1.389 . S
C2324 C2325 1.387 . S
C2325 H2310 0.930 . S
C2325 C2320 1.390 . S
C2325 C2324 1.387 . S
H2326 C2338 0.930 . S
H2327 C2340 0.930 . S
H2328 C2341 0.930 . S
H2329 C2345 0.959 . S
H2330 C2345 0.959 . S
H2331 C2345 0.961 . S
H2332 C2346 0.960 . S
H2333 C2346 0.961 . S
H2334 C2346 0.959 . S
H2335 C2349 0.929 . S
H2336 C2350 0.931 . S
H2337 C2352 0.930 . S
C2338 H2326 0.930 . S
C2338 C2339 1.399 . S
C2338 C2343 1.399 . S
C2339 C2338 1.399 . S
C2339 C2340 1.376 . S
C2340 H2327 0.930 . S
C2340 C2339 1.376 . S
C2340 C2341 1.388 . S
C2341 H2328 0.930 . S
C2341 C2340 1.388 . S
C2341 C2342 1.390 . S
C2342 C2341 1.390 . S
C2342 C2343 1.394 . S
C2342 C2348 1.465 . S
C2343 C2338 1.399 . S
C2343 C2342 1.394 . S
C2343 C2344 1.516 . S
C2344 C2343 1.516 . S
C2344 C2345 1.502 . S
C2344 C2346 1.561 . S
C2344 C2347 1.526 . S
C2345 H2329 0.959 . S
C2345 H2330 0.959 . S
C2345 H2331 0.961 . S
C2345 C2344 1.502 . S
C2346 H2332 0.960 . S
C2346 H2333 0.961 . S
C2346 H2334 0.959 . S
C2346 C2344 1.561 . S
C2347 C2344 1.526 . S
C2347 C2348 1.396 . S
C2347 C2352 1.390 . S
C2348 C2342 1.465 . S
C2348 C2347 1.396 . S
C2348 C2349 1.399 1_556 S
C2349 H2335 0.929 . S
C2349 C2348 1.399 1_554 S
C2349 C2350 1.385 . S
C2350 H2336 0.931 . S
C2350 C2349 1.385 . S
C2350 C2351 1.389 . S
C2351 C2350 1.389 . S
C2351 C2352 1.387 1_554 S
C2352 H2337 0.930 . S
C2352 C2347 1.390 . S
C2352 C2351 1.387 1_556 S
H2353 C2365 0.930 . S
H2354 C2367 0.930 . S
H2355 C2368 0.930 . S
H2356 C2372 0.959 . S
H2357 C2372 0.959 . S
H2358 C2372 0.961 1_455 S
H2359 C2373 0.960 . S
H2360 C2373 0.961 . S
H2361 C2373 0.959 . S
H2362 C2376 0.929 . S
H2363 C2377 0.931 . S
H2364 C2379 0.930 . S
C2365 H2353 0.930 . S
C2365 C2366 1.399 . S
C2365 C2370 1.399 1_455 S
C2366 C2365 1.399 . S
C2366 C2367 1.376 . S
C2367 H2354 0.930 . S
C2367 C2366 1.376 . S
C2367 C2368 1.388 1_455 S
C2368 H2355 0.930 . S
C2368 C2367 1.388 1_655 S
C2368 C2369 1.390 . S
C2369 C2368 1.390 . S
C2369 C2370 1.394 . S
C2369 C2375 1.465 . S
C2370 C2365 1.399 1_655 S
C2370 C2369 1.394 . S
C2370 C2371 1.516 . S
C2371 C2370 1.516 . S
C2371 C2372 1.502 . S
C2371 C2373 1.561 . S
C2371 C2374 1.526 . S
C2372 H2356 0.959 . S
C2372 H2357 0.959 . S
C2372 H2358 0.961 1_655 S
C2372 C2371 1.502 . S
C2373 H2359 0.960 . S
C2373 H2360 0.961 . S
C2373 H2361 0.959 . S
C2373 C2371 1.561 . S
C2374 C2371 1.526 . S
C2374 C2375 1.396 . S
C2374 C2379 1.390 . S
C2375 C2369 1.465 . S
C2375 C2374 1.396 . S
C2375 C2376 1.399 . S
C2376 H2362 0.929 . S
C2376 C2375 1.399 . S
C2376 C2377 1.385 . S
C2377 H2363 0.931 . S
C2377 C2376 1.385 . S
C2377 C2378 1.389 . S
C2378 C2377 1.389 . S
C2378 C2379 1.387 . S
C2379 H2364 0.930 . S
C2379 C2374 1.390 . S
C2379 C2378 1.387 . S
H2380 C2392 0.930 . S
H2381 C2394 0.930 . S
H2382 C2395 0.930 . S
H2383 C2399 0.959 . S
H2384 C2399 0.959 . S
H2385 C2399 0.961 . S
H2386 C2400 0.960 . S
H2387 C2400 0.961 . S
H2388 C2400 0.959 . S
H2389 C2403 0.929 . S
H2390 C2404 0.931 . S
H2391 C2406 0.930 . S
C2392 H2380 0.930 . S
C2392 C2393 1.399 . S
C2392 C2397 1.399 . S
C2393 C2392 1.399 . S
C2393 C2394 1.376 . S
C2394 H2381 0.930 . S
C2394 C2393 1.376 . S
C2394 C2395 1.388 . S
C2395 H2382 0.930 . S
C2395 C2394 1.388 . S
C2395 C2396 1.390 . S
C2396 C2395 1.390 . S
C2396 C2397 1.394 . S
C2396 C2402 1.465 . S
C2397 C2392 1.399 . S
C2397 C2396 1.394 . S
C2397 C2398 1.516 . S
C2398 C2397 1.516 . S
C2398 C2399 1.502 . S
C2398 C2400 1.561 . S
C2398 C2401 1.526 . S
C2399 H2383 0.959 . S
C2399 H2384 0.959 . S
C2399 H2385 0.961 . S
C2399 C2398 1.502 . S
C2400 H2386 0.960 . S
C2400 H2387 0.961 . S
C2400 H2388 0.959 . S
C2400 C2398 1.561 . S
C2401 C2398 1.526 . S
C2401 C2402 1.396 . S
C2401 C2406 1.390 . S
C2402 C2396 1.465 . S
C2402 C2401 1.396 . S
C2402 C2403 1.399 . S
C2403 H2389 0.929 . S
C2403 C2402 1.399 . S
C2403 C2404 1.385 . S
C2404 H2390 0.931 . S
C2404 C2403 1.385 . S
C2404 C2405 1.389 . S
C2405 C2404 1.389 . S
C2405 C2406 1.387 . S
C2406 H2391 0.930 . S
C2406 C2401 1.390 . S
C2406 C2405 1.387 . S
H2407 C2419 0.930 . S
H2408 C2421 0.930 . S
H2409 C2422 0.930 . S
H2410 C2426 0.959 . S
H2411 C2426 0.959 1_655 S
H2412 C2426 0.961 . S
H2413 C2427 0.960 1_455 S
H2414 C2427 0.961 . S
H2415 C2427 0.959 . S
H2416 C2430 0.929 . S
H2417 C2431 0.931 . S
H2418 C2433 0.930 . S
C2419 H2407 0.930 . S
C2419 C2420 1.399 . S
C2419 C2424 1.399 . S
C2420 C2419 1.399 . S
C2420 C2421 1.376 . S
C2421 H2408 0.930 . S
C2421 C2420 1.376 . S
C2421 C2422 1.388 . S
C2422 H2409 0.930 . S
C2422 C2421 1.388 . S
C2422 C2423 1.390 . S
C2423 C2422 1.390 . S
C2423 C2424 1.394 . S
C2423 C2429 1.465 1_455 S
C2424 C2419 1.399 . S
C2424 C2423 1.394 . S
C2424 C2425 1.516 1_455 S
C2425 C2424 1.516 1_655 S
C2425 C2426 1.502 1_655 S
C2425 C2427 1.561 . S
C2425 C2428 1.526 . S
C2426 H2410 0.959 . S
C2426 H2411 0.959 1_455 S
C2426 H2412 0.961 . S
C2426 C2425 1.502 1_455 S
C2427 H2413 0.960 1_655 S
C2427 H2414 0.961 . S
C2427 H2415 0.959 . S
C2427 C2425 1.561 . S
C2428 C2425 1.526 . S
C2428 C2429 1.396 . S
C2428 C2433 1.390 . S
C2429 C2423 1.465 1_655 S
C2429 C2428 1.396 . S
C2429 C2430 1.399 . S
C2430 H2416 0.929 . S
C2430 C2429 1.399 . S
C2430 C2431 1.385 . S
C2431 H2417 0.931 . S
C2431 C2430 1.385 . S
C2431 C2432 1.389 . S
C2432 C2431 1.389 . S
C2432 C2433 1.387 . S
C2433 H2418 0.930 . S
C2433 C2428 1.390 . S
C2433 C2432 1.387 . S
H2434 C2446 0.930 . S
H2435 C2448 0.930 . S
H2436 C2449 0.930 . S
H2437 C2453 0.959 1_455 S
H2438 C2453 0.959 . S
H2439 C2453 0.961 . S
H2440 C2454 0.960 . S
H2441 C2454 0.961 . S
H2442 C2454 0.959 . S
H2443 C2457 0.929 . S
H2444 C2458 0.931 . S
H2445 C2460 0.930 . S
C2446 H2434 0.930 . S
C2446 C2447 1.399 . S
C2446 C2451 1.393 1_655 S
C2447 C2446 1.399 . S
C2447 C2448 1.376 1_655 S
C2448 H2435 0.930 . S
C2448 C2447 1.376 1_455 S
C2448 C2449 1.388 . S
C2449 H2436 0.930 . S
C2449 C2448 1.388 . S
C2449 C2450 1.390 . S
C2450 C2449 1.390 . S
C2450 C2451 1.399 . S
C2450 C2456 1.465 . S
C2451 C2446 1.393 1_455 S
C2451 C2450 1.399 . S
C2451 C2452 1.517 1_455 S
C2452 C2451 1.517 1_655 S
C2452 C2453 1.502 . S
C2452 C2454 1.561 . S
C2452 C2455 1.526 1_655 S
C2453 H2437 0.959 1_655 S
C2453 H2438 0.959 . S
C2453 H2439 0.961 . S
C2453 C2452 1.502 . S
C2454 H2440 0.960 . S
C2454 H2441 0.961 . S
C2454 H2442 0.959 . S
C2454 C2452 1.561 . S
C2455 C2452 1.526 1_455 S
C2455 C2456 1.396 . S
C2455 C2460 1.390 . S
C2456 C2450 1.465 . S
C2456 C2455 1.396 . S
C2456 C2457 1.399 . S
C2457 H2443 0.929 . S
C2457 C2456 1.399 . S
C2457 C2458 1.385 . S
C2458 H2444 0.931 . S
C2458 C2457 1.385 . S
C2458 C2459 1.389 . S
C2459 C2458 1.389 . S
C2459 C2460 1.387 . S
C2460 H2445 0.930 . S
C2460 C2455 1.390 . S
C2460 C2459 1.387 . S
H2461 C2473 0.930 . S
H2462 C2475 0.930 . S
H2463 C2476 0.930 . S
H2464 C2480 0.959 . S
H2465 C2480 0.959 . S
H2466 C2480 0.961 . S
H2467 C2481 0.960 . S
H2468 C2481 0.961 . S
H2469 C2481 0.959 . S
H2470 C2484 0.929 . S
H2471 C2485 0.931 . S
H2472 C2487 0.930 . S
C2473 H2461 0.930 . S
C2473 C2474 1.399 . S
C2473 C2478 1.399 . S
C2474 C2473 1.399 . S
C2474 C2475 1.376 . S
C2475 H2462 0.930 . S
C2475 C2474 1.376 . S
C2475 C2476 1.388 . S
C2476 H2463 0.930 . S
C2476 C2475 1.388 . S
C2476 C2477 1.390 . S
C2477 C2476 1.390 . S
C2477 C2478 1.394 . S
C2477 C2483 1.465 . S
C2478 C2473 1.399 . S
C2478 C2477 1.394 . S
C2478 C2479 1.516 . S
C2479 C2478 1.516 . S
C2479 C2480 1.502 . S
C2479 C2481 1.561 . S
C2479 C2482 1.526 . S
C2480 H2464 0.959 . S
C2480 H2465 0.959 . S
C2480 H2466 0.961 . S
C2480 C2479 1.502 . S
C2481 H2467 0.960 . S
C2481 H2468 0.961 . S
C2481 H2469 0.959 . S
C2481 C2479 1.561 . S
C2482 C2479 1.526 . S
C2482 C2483 1.396 . S
C2482 C2487 1.390 . S
C2483 C2477 1.465 . S
C2483 C2482 1.396 . S
C2483 C2484 1.399 . S
C2484 H2470 0.929 . S
C2484 C2483 1.399 . S
C2484 C2485 1.385 . S
C2485 H2471 0.931 . S
C2485 C2484 1.385 . S
C2485 C2486 1.389 . S
C2486 C2485 1.389 . S
C2486 C2487 1.387 . S
C2487 H2472 0.930 . S
C2487 C2482 1.390 . S
C2487 C2486 1.387 . S
H2488 C2500 0.930 . S
H2489 C2502 0.930 . S
H2490 C2503 0.930 . S
H2491 C2507 0.959 . S
H2492 C2507 0.959 . S
H2493 C2507 0.961 . S
H2494 C2508 0.960 . S
H2495 C2508 0.961 . S
H2496 C2508 0.959 . S
H2497 C2511 0.929 . S
H2498 C2512 0.931 . S
H2499 C2514 0.930 . S
C2500 H2488 0.930 . S
C2500 C2501 1.399 . S
C2500 C2505 1.399 . S
C2501 C2500 1.399 . S
C2501 C2502 1.376 . S
C2502 H2489 0.930 . S
C2502 C2501 1.376 . S
C2502 C2503 1.388 . S
C2503 H2490 0.930 . S
C2503 C2502 1.388 . S
C2503 C2504 1.390 . S
C2504 C2503 1.390 . S
C2504 C2505 1.394 . S
C2504 C2510 1.465 . S
C2505 C2500 1.399 . S
C2505 C2504 1.394 . S
C2505 C2506 1.516 . S
C2506 C2505 1.516 . S
C2506 C2507 1.502 . S
C2506 C2508 1.561 . S
C2506 C2509 1.526 . S
C2507 H2491 0.959 . S
C2507 H2492 0.959 . S
C2507 H2493 0.961 . S
C2507 C2506 1.502 . S
C2508 H2494 0.960 . S
C2508 H2495 0.961 . S
C2508 H2496 0.959 . S
C2508 C2506 1.561 . S
C2509 C2506 1.526 . S
C2509 C2510 1.396 . S
C2509 C2514 1.390 . S
C2510 C2504 1.465 . S
C2510 C2509 1.396 . S
C2510 C2511 1.399 . S
C2511 H2497 0.929 . S
C2511 C2510 1.399 . S
C2511 C2512 1.385 . S
C2512 H2498 0.931 . S
C2512 C2511 1.385 . S
C2512 C2513 1.389 . S
C2513 C2512 1.389 . S
C2513 C2514 1.387 . S
C2514 H2499 0.930 . S
C2514 C2509 1.390 . S
C2514 C2513 1.387 . S
H2515 C2527 0.930 . S
H2516 C2529 0.935 1_554 S
H2517 C2530 0.930 . S
H2518 C2534 0.959 . S
H2519 C2534 0.959 . S
H2520 C2534 0.961 . S
H2521 C2535 0.960 . S
H2522 C2535 0.961 . S
H2523 C2535 0.959 . S
H2524 C2538 0.929 . S
H2525 C2539 0.931 . S
H2526 C2541 0.930 . S
C2527 H2515 0.930 . S
C2527 C2528 1.399 . S
C2527 C2532 1.399 . S
C2528 C2527 1.399 . S
C2528 C2529 1.376 . S
C2529 H2516 0.935 1_556 S
C2529 C2528 1.376 . S
C2529 C2530 1.388 . S
C2530 H2517 0.930 . S
C2530 C2529 1.388 . S
C2530 C2531 1.390 . S
C2531 C2530 1.390 . S
C2531 C2532 1.394 . S
C2531 C2537 1.465 . S
C2532 C2527 1.399 . S
C2532 C2531 1.394 . S
C2532 C2533 1.516 . S
C2533 C2532 1.516 . S
C2533 C2534 1.502 . S
C2533 C2535 1.561 . S
C2533 C2536 1.526 . S
C2534 H2518 0.959 . S
C2534 H2519 0.959 . S
C2534 H2520 0.961 . S
C2534 C2533 1.502 . S
C2535 H2521 0.960 . S
C2535 H2522 0.961 . S
C2535 H2523 0.959 . S
C2535 C2533 1.561 . S
C2536 C2533 1.526 . S
C2536 C2537 1.396 . S
C2536 C2541 1.390 . S
C2537 C2531 1.465 . S
C2537 C2536 1.396 . S
C2537 C2538 1.399 . S
C2538 H2524 0.929 . S
C2538 C2537 1.399 . S
C2538 C2539 1.385 . S
C2539 H2525 0.931 . S
C2539 C2538 1.385 . S
C2539 C2540 1.389 . S
C2540 C2539 1.389 . S
C2540 C2541 1.387 . S
C2541 H2526 0.930 . S
C2541 C2536 1.390 . S
C2541 C2540 1.387 . S
H2542 C2554 0.930 . S
H2543 C2556 0.930 . S
H2544 C2557 0.930 . S
H2545 C2561 0.959 . S
H2546 C2561 0.959 . S
H2547 C2561 0.961 . S
H2548 C2562 0.960 . S
H2549 C2562 0.961 . S
H2550 C2562 0.959 . S
H2551 C2565 0.929 . S
H2552 C2566 0.931 . S
H2553 C2568 0.930 . S
C2554 H2542 0.930 . S
C2554 C2555 1.399 . S
C2554 C2559 1.399 . S
C2555 C2554 1.399 . S
C2555 C2556 1.376 . S
C2556 H2543 0.930 . S
C2556 C2555 1.376 . S
C2556 C2557 1.388 . S
C2557 H2544 0.930 . S
C2557 C2556 1.388 . S
C2557 C2558 1.390 . S
C2558 C2557 1.390 . S
C2558 C2559 1.394 . S
C2558 C2564 1.465 . S
C2559 C2554 1.399 . S
C2559 C2558 1.394 . S
C2559 C2560 1.516 . S
C2560 C2559 1.516 . S
C2560 C2561 1.502 . S
C2560 C2562 1.561 . S
C2560 C2563 1.526 . S
C2561 H2545 0.959 . S
C2561 H2546 0.959 . S
C2561 H2547 0.961 . S
C2561 C2560 1.502 . S
C2562 H2548 0.960 . S
C2562 H2549 0.961 . S
C2562 H2550 0.959 . S
C2562 C2560 1.561 . S
C2563 C2560 1.526 . S
C2563 C2564 1.396 . S
C2563 C2568 1.390 . S
C2564 C2558 1.465 . S
C2564 C2563 1.396 . S
C2564 C2565 1.399 . S
C2565 H2551 0.929 . S
C2565 C2564 1.399 . S
C2565 C2566 1.385 . S
C2566 H2552 0.931 . S
C2566 C2565 1.385 . S
C2566 C2567 1.389 . S
C2567 C2566 1.389 . S
C2567 C2568 1.387 . S
C2568 H2553 0.930 . S
C2568 C2563 1.390 . S
C2568 C2567 1.387 . S
H2569 C2581 0.930 . S
H2570 C2583 0.930 . S
H2571 C2584 0.930 . S
H2572 C2588 0.959 . S
H2573 C2588 0.959 . S
H2574 C2588 0.961 . S
H2575 C2589 0.960 . S
H2576 C2589 0.961 . S
H2577 C2589 0.959 . S
H2578 C2592 0.929 . S
H2579 C2593 0.931 . S
H2580 C2595 0.930 . S
C2581 H2569 0.930 . S
C2581 C2582 1.399 . S
C2581 C2586 1.399 . S
C2582 C2581 1.399 . S
C2582 C2583 1.376 . S
C2583 H2570 0.930 . S
C2583 C2582 1.376 . S
C2583 C2584 1.388 . S
C2584 H2571 0.930 . S
C2584 C2583 1.388 . S
C2584 C2585 1.390 . S
C2585 C2584 1.390 . S
C2585 C2586 1.394 . S
C2585 C2591 1.465 . S
C2586 C2581 1.399 . S
C2586 C2585 1.394 . S
C2586 C2587 1.516 . S
C2587 C2586 1.516 . S
C2587 C2588 1.502 . S
C2587 C2589 1.561 . S
C2587 C2590 1.526 . S
C2588 H2572 0.959 . S
C2588 H2573 0.959 . S
C2588 H2574 0.961 . S
C2588 C2587 1.502 . S
C2589 H2575 0.960 . S
C2589 H2576 0.961 . S
C2589 H2577 0.959 . S
C2589 C2587 1.561 . S
C2590 C2587 1.526 . S
C2590 C2591 1.396 . S
C2590 C2595 1.390 . S
C2591 C2585 1.465 . S
C2591 C2590 1.396 . S
C2591 C2592 1.399 . S
C2592 H2578 0.929 . S
C2592 C2591 1.399 . S
C2592 C2593 1.385 . S
C2593 H2579 0.931 . S
C2593 C2592 1.385 . S
C2593 C2594 1.389 . S
C2594 C2593 1.389 . S
C2594 C2595 1.387 . S
C2595 H2580 0.930 . S
C2595 C2590 1.390 . S
C2595 C2594 1.387 . S
H2596 C2608 0.930 . S
H2597 C2610 0.930 . S
H2598 C2611 0.930 . S
H2599 C2615 0.959 . S
H2600 C2615 0.959 . S
H2601 C2615 0.961 . S
H2602 C2616 0.960 . S
H2603 C2616 0.961 . S
H2604 C2616 0.959 . S
H2605 C2619 0.929 . S
H2606 C2620 0.931 . S
H2607 C2622 0.930 . S
C2608 H2596 0.930 . S
C2608 C2609 1.399 . S
C2608 C2613 1.399 . S
C2609 C2608 1.399 . S
C2609 C2610 1.376 . S
C2610 H2597 0.930 . S
C2610 C2609 1.376 . S
C2610 C2611 1.388 . S
C2611 H2598 0.930 . S
C2611 C2610 1.388 . S
C2611 C2612 1.390 . S
C2612 C2611 1.390 . S
C2612 C2613 1.394 . S
C2612 C2618 1.465 . S
C2613 C2608 1.399 . S
C2613 C2612 1.394 . S
C2613 C2614 1.516 . S
C2614 C2613 1.516 . S
C2614 C2615 1.502 . S
C2614 C2616 1.561 . S
C2614 C2617 1.526 . S
C2615 H2599 0.959 . S
C2615 H2600 0.959 . S
C2615 H2601 0.961 . S
C2615 C2614 1.502 . S
C2616 H2602 0.960 . S
C2616 H2603 0.961 . S
C2616 H2604 0.959 . S
C2616 C2614 1.561 . S
C2617 C2614 1.526 . S
C2617 C2618 1.396 . S
C2617 C2622 1.390 . S
C2618 C2612 1.465 . S
C2618 C2617 1.396 . S
C2618 C2619 1.399 . S
C2619 H2605 0.929 . S
C2619 C2618 1.399 . S
C2619 C2620 1.385 . S
C2620 H2606 0.931 . S
C2620 C2619 1.385 . S
C2620 C2621 1.389 . S
C2621 C2620 1.389 . S
C2621 C2622 1.387 . S
C2622 H2607 0.930 . S
C2622 C2617 1.390 . S
C2622 C2621 1.387 . S
H2623 C2635 0.930 . S
H2624 C2637 0.930 . S
H2625 C2638 0.930 . S
H2626 C2642 0.959 . S
H2627 C2642 0.959 . S
H2628 C2642 0.961 . S
H2629 C2643 0.960 . S
H2630 C2643 0.961 . S
H2631 C2643 0.959 . S
H2632 C2646 0.929 . S
H2633 C2647 0.931 . S
H2634 C2649 0.930 . S
C2635 H2623 0.930 . S
C2635 C2636 1.399 . S
C2635 C2640 1.399 . S
C2636 C2635 1.399 . S
C2636 C2637 1.376 . S
C2637 H2624 0.930 . S
C2637 C2636 1.376 . S
C2637 C2638 1.388 . S
C2638 H2625 0.930 . S
C2638 C2637 1.388 . S
C2638 C2639 1.390 . S
C2639 C2638 1.390 . S
C2639 C2640 1.394 . S
C2639 C2645 1.465 . S
C2640 C2635 1.399 . S
C2640 C2639 1.394 . S
C2640 C2641 1.516 . S
C2641 C2640 1.516 . S
C2641 C2642 1.502 . S
C2641 C2643 1.561 . S
C2641 C2644 1.526 . S
C2642 H2626 0.959 . S
C2642 H2627 0.959 . S
C2642 H2628 0.961 . S
C2642 C2641 1.502 . S
C2643 H2629 0.960 . S
C2643 H2630 0.961 . S
C2643 H2631 0.959 . S
C2643 C2641 1.561 . S
C2644 C2641 1.526 . S
C2644 C2645 1.396 . S
C2644 C2649 1.390 . S
C2645 C2639 1.465 . S
C2645 C2644 1.396 . S
C2645 C2646 1.399 . S
C2646 H2632 0.929 . S
C2646 C2645 1.399 . S
C2646 C2647 1.385 . S
C2647 H2633 0.931 . S
C2647 C2646 1.385 . S
C2647 C2648 1.389 . S
C2648 C2647 1.389 . S
C2648 C2649 1.387 . S
C2649 H2634 0.930 . S
C2649 C2644 1.390 . S
C2649 C2648 1.387 . S
H2650 C2662 0.930 . S
H2651 C2664 0.930 . S
H2652 C2665 0.930 . S
H2653 C2669 0.959 . S
H2654 C2669 0.959 . S
H2655 C2669 0.961 . S
H2656 C2670 0.960 . S
H2657 C2670 0.961 . S
H2658 C2670 0.959 . S
H2659 C2673 0.929 . S
H2660 C2674 0.931 . S
H2661 C2676 0.930 . S
C2662 H2650 0.930 . S
C2662 C2663 1.399 . S
C2662 C2667 1.399 . S
C2663 C2662 1.399 . S
C2663 C2664 1.376 . S
C2664 H2651 0.930 . S
C2664 C2663 1.376 . S
C2664 C2665 1.388 . S
C2665 H2652 0.930 . S
C2665 C2664 1.388 . S
C2665 C2666 1.390 . S
C2666 C2665 1.390 . S
C2666 C2667 1.394 . S
C2666 C2672 1.465 . S
C2667 C2662 1.399 . S
C2667 C2666 1.394 . S
C2667 C2668 1.516 . S
C2668 C2667 1.516 . S
C2668 C2669 1.502 . S
C2668 C2670 1.561 . S
C2668 C2671 1.526 . S
C2669 H2653 0.959 . S
C2669 H2654 0.959 . S
C2669 H2655 0.961 . S
C2669 C2668 1.502 . S
C2670 H2656 0.960 . S
C2670 H2657 0.961 . S
C2670 H2658 0.959 . S
C2670 C2668 1.561 . S
C2671 C2668 1.526 . S
C2671 C2672 1.396 . S
C2671 C2676 1.390 . S
C2672 C2666 1.465 . S
C2672 C2671 1.396 . S
C2672 C2673 1.399 . S
C2673 H2659 0.929 . S
C2673 C2672 1.399 . S
C2673 C2674 1.385 . S
C2674 H2660 0.931 . S
C2674 C2673 1.385 . S
C2674 C2675 1.389 . S
C2675 C2674 1.389 . S
C2675 C2676 1.387 . S
C2676 H2661 0.930 . S
C2676 C2671 1.390 . S
C2676 C2675 1.387 . S
H2677 C2689 0.930 . S
H2678 C2691 0.930 . S
H2679 C2692 0.930 . S
H2680 C2696 0.959 . S
H2681 C2696 0.959 . S
H2682 C2696 0.961 . S
H2683 C2697 0.960 . S
H2684 C2697 0.961 . S
H2685 C2697 0.959 . S
H2686 C2700 0.929 . S
H2687 C2701 0.931 . S
H2688 C2703 0.930 . S
C2689 H2677 0.930 . S
C2689 C2690 1.399 . S
C2689 C2694 1.399 . S
C2690 C2689 1.399 . S
C2690 C2691 1.376 . S
C2691 H2678 0.930 . S
C2691 C2690 1.376 . S
C2691 C2692 1.388 . S
C2692 H2679 0.930 . S
C2692 C2691 1.388 . S
C2692 C2693 1.390 . S
C2693 C2692 1.390 . S
C2693 C2694 1.394 . S
C2693 C2699 1.465 . S
C2694 C2689 1.399 . S
C2694 C2693 1.394 . S
C2694 C2695 1.516 . S
C2695 C2694 1.516 . S
C2695 C2696 1.502 . S
C2695 C2697 1.561 . S
C2695 C2698 1.526 . S
C2696 H2680 0.959 . S
C2696 H2681 0.959 . S
C2696 H2682 0.961 . S
C2696 C2695 1.502 . S
C2697 H2683 0.960 . S
C2697 H2684 0.961 . S
C2697 H2685 0.959 . S
C2697 C2695 1.561 . S
C2698 C2695 1.526 . S
C2698 C2699 1.396 . S
C2698 C2703 1.390 . S
C2699 C2693 1.465 . S
C2699 C2698 1.396 . S
C2699 C2700 1.399 . S
C2700 H2686 0.929 . S
C2700 C2699 1.399 . S
C2700 C2701 1.385 . S
C2701 H2687 0.931 . S
C2701 C2700 1.385 . S
C2701 C2702 1.389 . S
C2702 C2701 1.389 . S
C2702 C2703 1.387 . S
C2703 H2688 0.930 . S
C2703 C2698 1.390 . S
C2703 C2702 1.387 . S
H2704 C2716 0.930 . S
H2705 C2718 0.930 . S
H2706 C2719 0.930 . S
H2707 C2723 0.959 . S
H2708 C2723 0.959 . S
H2709 C2723 0.961 . S
H2710 C2724 0.960 . S
H2711 C2724 0.961 . S
H2712 C2724 0.959 . S
H2713 C2727 0.929 . S
H2714 C2728 0.931 . S
H2715 C2730 0.930 . S
C2716 H2704 0.930 . S
C2716 C2717 1.399 . S
C2716 C2721 1.399 . S
C2717 C2716 1.399 . S
C2717 C2718 1.376 . S
C2718 H2705 0.930 . S
C2718 C2717 1.376 . S
C2718 C2719 1.388 . S
C2719 H2706 0.930 . S
C2719 C2718 1.388 . S
C2719 C2720 1.390 . S
C2720 C2719 1.390 . S
C2720 C2721 1.394 . S
C2720 C2726 1.465 . S
C2721 C2716 1.399 . S
C2721 C2720 1.394 . S
C2721 C2722 1.516 . S
C2722 C2721 1.516 . S
C2722 C2723 1.502 . S
C2722 C2724 1.561 . S
C2722 C2725 1.526 . S
C2723 H2707 0.959 . S
C2723 H2708 0.959 . S
C2723 H2709 0.961 . S
C2723 C2722 1.502 . S
C2724 H2710 0.960 . S
C2724 H2711 0.961 . S
C2724 H2712 0.959 . S
C2724 C2722 1.561 . S
C2725 C2722 1.526 . S
C2725 C2726 1.396 . S
C2725 C2730 1.390 . S
C2726 C2720 1.465 . S
C2726 C2725 1.396 . S
C2726 C2727 1.399 . S
C2727 H2713 0.929 . S
C2727 C2726 1.399 . S
C2727 C2728 1.385 . S
C2728 H2714 0.931 . S
C2728 C2727 1.385 . S
C2728 C2729 1.389 . S
C2729 C2728 1.389 . S
C2729 C2730 1.387 . S
C2730 H2715 0.930 . S
C2730 C2725 1.390 . S
C2730 C2729 1.387 . S
H2731 C2743 0.930 . S
H2732 C2745 0.930 . S
H2733 C2746 0.930 . S
H2734 C2750 0.959 . S
H2735 C2750 0.959 . S
H2736 C2750 0.961 . S
H2737 C2751 0.960 . S
H2738 C2751 0.961 . S
H2739 C2751 0.959 . S
H2740 C2754 0.929 . S
H2741 C2755 0.931 . S
H2742 C2757 0.930 . S
C2743 H2731 0.930 . S
C2743 C2744 1.399 . S
C2743 C2748 1.399 . S
C2744 C2743 1.399 . S
C2744 C2745 1.376 . S
C2745 H2732 0.930 . S
C2745 C2744 1.376 . S
C2745 C2746 1.388 . S
C2746 H2733 0.930 . S
C2746 C2745 1.388 . S
C2746 C2747 1.390 . S
C2747 C2746 1.390 . S
C2747 C2748 1.394 . S
C2747 C2753 1.465 . S
C2748 C2743 1.399 . S
C2748 C2747 1.394 . S
C2748 C2749 1.516 . S
C2749 C2748 1.516 . S
C2749 C2750 1.502 . S
C2749 C2751 1.561 . S
C2749 C2752 1.526 . S
C2750 H2734 0.959 . S
C2750 H2735 0.959 . S
C2750 H2736 0.961 . S
C2750 C2749 1.502 . S
C2751 H2737 0.960 . S
C2751 H2738 0.961 . S
C2751 H2739 0.959 . S
C2751 C2749 1.561 . S
C2752 C2749 1.526 . S
C2752 C2753 1.396 . S
C2752 C2757 1.390 . S
C2753 C2747 1.465 . S
C2753 C2752 1.396 . S
C2753 C2754 1.399 . S
C2754 H2740 0.929 . S
C2754 C2753 1.399 . S
C2754 C2755 1.385 . S
C2755 H2741 0.931 . S
C2755 C2754 1.385 . S
C2755 C2756 1.389 . S
C2756 C2755 1.389 . S
C2756 C2757 1.387 . S
C2757 H2742 0.930 . S
C2757 C2752 1.390 . S
C2757 C2756 1.387 . S
H2758 C2770 0.930 . S
H2759 C2772 0.930 . S
H2760 C2773 0.930 . S
H2761 C2777 0.959 . S
H2762 C2777 0.959 . S
H2763 C2777 0.961 . S
H2764 C2778 0.960 . S
H2765 C2778 0.961 . S
H2766 C2778 0.959 . S
H2767 C2781 0.929 . S
H2768 C2782 0.931 . S
H2769 C2784 0.930 . S
C2770 H2758 0.930 . S
C2770 C2771 1.399 . S
C2770 C2775 1.399 . S
C2771 C2770 1.399 . S
C2771 C2772 1.376 . S
C2772 H2759 0.930 . S
C2772 C2771 1.376 . S
C2772 C2773 1.388 . S
C2773 H2760 0.930 . S
C2773 C2772 1.388 . S
C2773 C2774 1.390 . S
C2774 C2773 1.390 . S
C2774 C2775 1.394 . S
C2774 C2780 1.465 . S
C2775 C2770 1.399 . S
C2775 C2774 1.394 . S
C2775 C2776 1.516 . S
C2776 C2775 1.516 . S
C2776 C2777 1.502 . S
C2776 C2778 1.561 . S
C2776 C2779 1.526 . S
C2777 H2761 0.959 . S
C2777 H2762 0.959 . S
C2777 H2763 0.961 . S
C2777 C2776 1.502 . S
C2778 H2764 0.960 . S
C2778 H2765 0.961 . S
C2778 H2766 0.959 . S
C2778 C2776 1.561 . S
C2779 C2776 1.526 . S
C2779 C2780 1.396 . S
C2779 C2784 1.390 . S
C2780 C2774 1.465 . S
C2780 C2779 1.396 . S
C2780 C2781 1.399 . S
C2781 H2767 0.929 . S
C2781 C2780 1.399 . S
C2781 C2782 1.385 . S
C2782 H2768 0.931 . S
C2782 C2781 1.385 . S
C2782 C2783 1.389 . S
C2783 C2782 1.389 . S
C2783 C2784 1.387 . S
C2784 H2769 0.930 . S
C2784 C2779 1.390 . S
C2784 C2783 1.387 . S
H2785 C2797 0.930 . S
H2786 C2799 0.930 . S
H2787 C2800 0.930 . S
H2788 C2804 0.959 . S
H2789 C2804 0.959 . S
H2790 C2804 0.961 . S
H2791 C2805 0.960 . S
H2792 C2805 0.961 . S
H2793 C2805 0.959 . S
H2794 C2808 0.924 1_565 S
H2795 C2809 0.931 . S
H2796 C2811 0.930 . S
C2797 H2785 0.930 . S
C2797 C2798 1.399 1_556 S
C2797 C2802 1.399 . S
C2798 C2797 1.399 1_554 S
C2798 C2799 1.376 . S
C2799 H2786 0.930 . S
C2799 C2798 1.376 . S
C2799 C2800 1.388 . S
C2800 H2787 0.930 . S
C2800 C2799 1.388 . S
C2800 C2801 1.390 . S
C2801 C2800 1.390 . S
C2801 C2802 1.387 1_554 S
C2801 C2807 1.465 . S
C2802 C2797 1.399 . S
C2802 C2801 1.387 1_556 S
C2802 C2803 1.522 . S
C2803 C2802 1.522 . S
C2803 C2804 1.502 . S
C2803 C2805 1.561 1_565 S
C2803 C2806 1.524 1_556 S
C2804 H2788 0.959 . S
C2804 H2789 0.959 . S
C2804 H2790 0.961 . S
C2804 C2803 1.502 . S
C2805 H2791 0.960 . S
C2805 H2792 0.961 . S
C2805 H2793 0.959 . S
C2805 C2803 1.561 1_545 S
C2806 C2803 1.524 1_554 S
C2806 C2807 1.399 . S
C2806 C2811 1.388 1_564 S
C2807 C2801 1.465 . S
C2807 C2806 1.399 . S
C2807 C2808 1.398 1_565 S
C2808 H2794 0.924 1_545 S
C2808 C2807 1.398 1_545 S
C2808 C2809 1.392 . S
C2809 H2795 0.931 . S
C2809 C2808 1.392 . S
C2809 C2810 1.389 . S
C2810 C2809 1.389 . S
C2810 C2811 1.387 1_554 S
C2811 H2796 0.930 . S
C2811 C2806 1.388 1_546 S
C2811 C2810 1.387 1_556 S
H2812 C2824 0.930 . S
H2813 C2826 0.930 . S
H2814 C2827 0.930 . S
H2815 C2831 0.959 . S
H2816 C2831 0.959 . S
H2817 C2831 0.961 . S
H2818 C2832 0.960 . S
H2819 C2832 0.961 . S
H2820 C2832 0.959 . S
H2821 C2835 0.929 . S
H2822 C2836 0.931 . S
H2823 C2838 0.930 . S
C2824 H2812 0.930 . S
C2824 C2825 1.399 . S
C2824 C2829 1.399 . S
C2825 C2824 1.399 . S
C2825 C2826 1.376 . S
C2826 H2813 0.930 . S
C2826 C2825 1.376 . S
C2826 C2827 1.388 . S
C2827 H2814 0.930 . S
C2827 C2826 1.388 . S
C2827 C2828 1.390 . S
C2828 C2827 1.390 . S
C2828 C2829 1.394 . S
C2828 C2834 1.465 . S
C2829 C2824 1.399 . S
C2829 C2828 1.394 . S
C2829 C2830 1.516 . S
C2830 C2829 1.516 . S
C2830 C2831 1.502 . S
C2830 C2832 1.561 . S
C2830 C2833 1.526 . S
C2831 H2815 0.959 . S
C2831 H2816 0.959 . S
C2831 H2817 0.961 . S
C2831 C2830 1.502 . S
C2832 H2818 0.960 . S
C2832 H2819 0.961 . S
C2832 H2820 0.959 . S
C2832 C2830 1.561 . S
C2833 C2830 1.526 . S
C2833 C2834 1.396 . S
C2833 C2838 1.390 . S
C2834 C2828 1.465 . S
C2834 C2833 1.396 . S
C2834 C2835 1.399 . S
C2835 H2821 0.929 . S
C2835 C2834 1.399 . S
C2835 C2836 1.385 . S
C2836 H2822 0.931 . S
C2836 C2835 1.385 . S
C2836 C2837 1.389 . S
C2837 C2836 1.389 . S
C2837 C2838 1.387 . S
C2838 H2823 0.930 . S
C2838 C2833 1.390 . S
C2838 C2837 1.387 . S
H2839 C2851 0.930 . S
H2840 C2853 0.930 . S
H2841 C2854 0.930 . S
H2842 C2858 0.959 . S
H2843 C2858 0.959 . S
H2844 C2858 0.961 . S
H2845 C2859 0.960 . S
H2846 C2859 0.961 . S
H2847 C2859 0.959 . S
H2848 C2862 0.929 1_556 S
H2849 C2863 0.931 . S
H2850 C2865 0.930 . S
C2851 H2839 0.930 . S
C2851 C2852 1.399 . S
C2851 C2856 1.399 . S
C2852 C2851 1.399 . S
C2852 C2853 1.376 1_554 S
C2853 H2840 0.930 . S
C2853 C2852 1.376 1_556 S
C2853 C2854 1.388 . S
C2854 H2841 0.930 . S
C2854 C2853 1.388 . S
C2854 C2855 1.390 1_556 S
C2855 C2854 1.390 1_554 S
C2855 C2856 1.394 . S
C2855 C2861 1.465 . S
C2856 C2851 1.399 . S
C2856 C2855 1.394 . S
C2856 C2857 1.516 . S
C2857 C2856 1.516 . S
C2857 C2858 1.502 . S
C2857 C2859 1.561 . S
C2857 C2860 1.526 . S
C2858 H2842 0.959 . S
C2858 H2843 0.959 . S
C2858 H2844 0.961 . S
C2858 C2857 1.502 . S
C2859 H2845 0.960 . S
C2859 H2846 0.961 . S
C2859 H2847 0.959 . S
C2859 C2857 1.561 . S
C2860 C2857 1.526 . S
C2860 C2861 1.396 . S
C2860 C2865 1.390 . S
C2861 C2855 1.465 . S
C2861 C2860 1.396 . S
C2861 C2862 1.399 . S
C2862 H2848 0.929 1_554 S
C2862 C2861 1.399 . S
C2862 C2863 1.385 . S
C2863 H2849 0.931 . S
C2863 C2862 1.385 . S
C2863 C2864 1.389 . S
C2864 C2863 1.389 . S
C2864 C2865 1.387 . S
C2865 H2850 0.930 . S
C2865 C2860 1.390 . S
C2865 C2864 1.387 . S
H2866 C2878 0.930 . S
H2867 C2880 0.930 . S
H2868 C2881 0.930 . S
H2869 C2885 0.959 . S
H2870 C2885 0.959 . S
H2871 C2885 0.961 . S
H2872 C2886 0.960 . S
H2873 C2886 0.961 . S
H2874 C2886 0.959 . S
H2875 C2889 0.929 . S
H2876 C2890 0.931 . S
H2877 C2892 0.930 . S
C2878 H2866 0.930 . S
C2878 C2879 1.399 . S
C2878 C2883 1.399 . S
C2879 C2878 1.399 . S
C2879 C2880 1.376 . S
C2880 H2867 0.930 . S
C2880 C2879 1.376 . S
C2880 C2881 1.388 . S
C2881 H2868 0.930 . S
C2881 C2880 1.388 . S
C2881 C2882 1.390 . S
C2882 C2881 1.390 . S
C2882 C2883 1.394 . S
C2882 C2888 1.465 . S
C2883 C2878 1.399 . S
C2883 C2882 1.394 . S
C2883 C2884 1.516 . S
C2884 C2883 1.516 . S
C2884 C2885 1.502 . S
C2884 C2886 1.561 . S
C2884 C2887 1.526 . S
C2885 H2869 0.959 . S
C2885 H2870 0.959 . S
C2885 H2871 0.961 . S
C2885 C2884 1.502 . S
C2886 H2872 0.960 . S
C2886 H2873 0.961 . S
C2886 H2874 0.959 . S
C2886 C2884 1.561 . S
C2887 C2884 1.526 . S
C2887 C2888 1.396 . S
C2887 C2892 1.390 . S
C2888 C2882 1.465 . S
C2888 C2887 1.396 . S
C2888 C2889 1.399 . S
C2889 H2875 0.929 . S
C2889 C2888 1.399 . S
C2889 C2890 1.385 . S
C2890 H2876 0.931 . S
C2890 C2889 1.385 . S
C2890 C2891 1.389 . S
C2891 C2890 1.389 . S
C2891 C2892 1.387 . S
C2892 H2877 0.930 . S
C2892 C2887 1.390 . S
C2892 C2891 1.387 . S
H2893 C2905 0.930 . S
H2894 C2907 0.930 . S
H2895 C2908 0.930 . S
H2896 C2912 0.959 . S
H2897 C2912 0.959 . S
H2898 C2912 0.961 . S
H2899 C2913 0.960 . S
H2900 C2913 0.961 . S
H2901 C2913 0.959 . S
H2902 C2916 0.929 . S
H2903 C2917 0.931 . S
H2904 C2919 0.930 . S
C2905 H2893 0.930 . S
C2905 C2906 1.399 . S
C2905 C2910 1.399 . S
C2906 C2905 1.399 . S
C2906 C2907 1.376 . S
C2907 H2894 0.930 . S
C2907 C2906 1.376 . S
C2907 C2908 1.388 . S
C2908 H2895 0.930 . S
C2908 C2907 1.388 . S
C2908 C2909 1.390 . S
C2909 C2908 1.390 . S
C2909 C2910 1.394 . S
C2909 C2915 1.465 . S
C2910 C2905 1.399 . S
C2910 C2909 1.394 . S
C2910 C2911 1.516 . S
C2911 C2910 1.516 . S
C2911 C2912 1.502 . S
C2911 C2913 1.561 . S
C2911 C2914 1.526 . S
C2912 H2896 0.959 . S
C2912 H2897 0.959 . S
C2912 H2898 0.961 . S
C2912 C2911 1.502 . S
C2913 H2899 0.960 . S
C2913 H2900 0.961 . S
C2913 H2901 0.959 . S
C2913 C2911 1.561 . S
C2914 C2911 1.526 . S
C2914 C2915 1.396 . S
C2914 C2919 1.390 . S
C2915 C2909 1.465 . S
C2915 C2914 1.396 . S
C2915 C2916 1.399 . S
C2916 H2902 0.929 . S
C2916 C2915 1.399 . S
C2916 C2917 1.385 . S
C2917 H2903 0.931 . S
C2917 C2916 1.385 . S
C2917 C2918 1.389 . S
C2918 C2917 1.389 . S
C2918 C2919 1.387 . S
C2919 H2904 0.930 . S
C2919 C2914 1.390 . S
C2919 C2918 1.387 . S
H2920 C2932 0.930 . S
H2921 C2934 0.930 . S
H2922 C2935 0.930 . S
H2923 C2939 0.959 . S
H2924 C2939 0.959 . S
H2925 C2939 0.961 . S
H2926 C2940 0.960 . S
H2927 C2940 0.961 . S
H2928 C2940 0.959 . S
H2929 C2943 0.929 . S
H2930 C2944 0.931 . S
H2931 C2946 0.930 . S
C2932 H2920 0.930 . S
C2932 C2933 1.399 . S
C2932 C2937 1.399 . S
C2933 C2932 1.399 . S
C2933 C2934 1.376 . S
C2934 H2921 0.930 . S
C2934 C2933 1.376 . S
C2934 C2935 1.388 . S
C2935 H2922 0.930 . S
C2935 C2934 1.388 . S
C2935 C2936 1.390 . S
C2936 C2935 1.390 . S
C2936 C2937 1.394 . S
C2936 C2942 1.465 . S
C2937 C2932 1.399 . S
C2937 C2936 1.394 . S
C2937 C2938 1.516 . S
C2938 C2937 1.516 . S
C2938 C2939 1.502 . S
C2938 C2940 1.561 . S
C2938 C2941 1.526 . S
C2939 H2923 0.959 . S
C2939 H2924 0.959 . S
C2939 H2925 0.961 . S
C2939 C2938 1.502 . S
C2940 H2926 0.960 . S
C2940 H2927 0.961 . S
C2940 H2928 0.959 . S
C2940 C2938 1.561 . S
C2941 C2938 1.526 . S
C2941 C2942 1.396 . S
C2941 C2946 1.390 . S
C2942 C2936 1.465 . S
C2942 C2941 1.396 . S
C2942 C2943 1.399 . S
C2943 H2929 0.929 . S
C2943 C2942 1.399 . S
C2943 C2944 1.385 . S
C2944 H2930 0.931 . S
C2944 C2943 1.385 . S
C2944 C2945 1.389 . S
C2945 C2944 1.389 . S
C2945 C2946 1.387 . S
C2946 H2931 0.930 . S
C2946 C2941 1.390 . S
C2946 C2945 1.387 . S
H2947 C2959 0.930 . S
H2948 C2961 0.930 . S
H2949 C2962 0.930 . S
H2950 C2966 0.959 . S
H2951 C2966 0.959 . S
H2952 C2966 0.961 . S
H2953 C2967 0.960 . S
H2954 C2967 0.961 . S
H2955 C2967 0.959 . S
H2956 C2970 0.929 . S
H2957 C2971 0.931 . S
H2958 C2973 0.930 . S
C2959 H2947 0.930 . S
C2959 C2960 1.399 . S
C2959 C2964 1.399 . S
C2960 C2959 1.399 . S
C2960 C2961 1.376 . S
C2961 H2948 0.930 . S
C2961 C2960 1.376 . S
C2961 C2962 1.388 . S
C2962 H2949 0.930 . S
C2962 C2961 1.388 . S
C2962 C2963 1.390 . S
C2963 C2962 1.390 . S
C2963 C2964 1.394 . S
C2963 C2969 1.465 . S
C2964 C2959 1.399 . S
C2964 C2963 1.394 . S
C2964 C2965 1.516 . S
C2965 C2964 1.516 . S
C2965 C2966 1.502 . S
C2965 C2967 1.561 . S
C2965 C2968 1.526 . S
C2966 H2950 0.959 . S
C2966 H2951 0.959 . S
C2966 H2952 0.961 . S
C2966 C2965 1.502 . S
C2967 H2953 0.960 . S
C2967 H2954 0.961 . S
C2967 H2955 0.959 . S
C2967 C2965 1.561 . S
C2968 C2965 1.526 . S
C2968 C2969 1.396 . S
C2968 C2973 1.390 . S
C2969 C2963 1.465 . S
C2969 C2968 1.396 . S
C2969 C2970 1.399 . S
C2970 H2956 0.929 . S
C2970 C2969 1.399 . S
C2970 C2971 1.385 . S
C2971 H2957 0.931 . S
C2971 C2970 1.385 . S
C2971 C2972 1.389 . S
C2972 C2971 1.389 . S
C2972 C2973 1.387 . S
C2973 H2958 0.930 . S
C2973 C2968 1.390 . S
C2973 C2972 1.387 . S
H2974 C2986 0.930 . S
H2975 C2988 0.930 . S
H2976 C2989 0.930 . S
H2977 C2993 0.959 . S
H2978 C2993 0.959 . S
H2979 C2993 0.961 . S
H2980 C2994 0.960 . S
H2981 C2994 0.961 . S
H2982 C2994 0.959 . S
H2983 C2997 0.937 . S
H2984 C2998 0.931 1_556 S
H2985 C3000 0.930 . S
C2986 H2974 0.930 . S
C2986 C2987 1.399 . S
C2986 C2991 1.399 . S
C2987 C2986 1.399 . S
C2987 C2988 1.376 . S
C2988 H2975 0.930 . S
C2988 C2987 1.376 . S
C2988 C2989 1.388 . S
C2989 H2976 0.930 . S
C2989 C2988 1.388 . S
C2989 C2990 1.390 . S
C2990 C2989 1.390 . S
C2990 C2991 1.394 . S
C2990 C2996 1.465 . S
C2991 C2986 1.399 . S
C2991 C2990 1.394 . S
C2991 C2992 1.516 . S
C2992 C2991 1.516 . S
C2992 C2993 1.502 . S
C2992 C2994 1.561 . S
C2992 C2995 1.526 . S
C2993 H2977 0.959 . S
C2993 H2978 0.959 . S
C2993 H2979 0.961 . S
C2993 C2992 1.502 . S
C2994 H2980 0.960 . S
C2994 H2981 0.961 . S
C2994 H2982 0.959 . S
C2994 C2992 1.561 . S
C2995 C2992 1.526 . S
C2995 C2996 1.396 . S
C2995 C3000 1.390 . S
C2996 C2990 1.465 . S
C2996 C2995 1.396 . S
C2996 C2997 1.399 . S
C2997 H2983 0.937 . S
C2997 C2996 1.399 . S
C2997 C2998 1.385 . S
C2998 H2984 0.931 1_554 S
C2998 C2997 1.385 . S
C2998 C2999 1.389 . S
C2999 C2998 1.389 . S
C2999 C3000 1.387 . S
C3000 H2985 0.930 . S
C3000 C2995 1.390 . S
C3000 C2999 1.387 . S
H3001 C3013 0.930 . S
H3002 C3015 0.930 . S
H3003 C3016 0.930 . S
H3004 C3020 0.959 . S
H3005 C3020 0.959 . S
H3006 C3020 0.961 . S
H3007 C3021 0.960 . S
H3008 C3021 0.961 . S
H3009 C3021 0.959 . S
H3010 C3024 0.929 . S
H3011 C3025 0.931 . S
H3012 C3027 0.930 . S
C3013 H3001 0.930 . S
C3013 C3014 1.399 . S
C3013 C3018 1.399 . S
C3014 C3013 1.399 . S
C3014 C3015 1.376 . S
C3015 H3002 0.930 . S
C3015 C3014 1.376 . S
C3015 C3016 1.388 . S
C3016 H3003 0.930 . S
C3016 C3015 1.388 . S
C3016 C3017 1.390 . S
C3017 C3016 1.390 . S
C3017 C3018 1.394 . S
C3017 C3023 1.465 . S
C3018 C3013 1.399 . S
C3018 C3017 1.394 . S
C3018 C3019 1.516 . S
C3019 C3018 1.516 . S
C3019 C3020 1.502 . S
C3019 C3021 1.561 . S
C3019 C3022 1.526 . S
C3020 H3004 0.959 . S
C3020 H3005 0.959 . S
C3020 H3006 0.961 . S
C3020 C3019 1.502 . S
C3021 H3007 0.960 . S
C3021 H3008 0.961 . S
C3021 H3009 0.959 . S
C3021 C3019 1.561 . S
C3022 C3019 1.526 . S
C3022 C3023 1.396 . S
C3022 C3027 1.390 . S
C3023 C3017 1.465 . S
C3023 C3022 1.396 . S
C3023 C3024 1.399 . S
C3024 H3010 0.929 . S
C3024 C3023 1.399 . S
C3024 C3025 1.385 . S
C3025 H3011 0.931 . S
C3025 C3024 1.385 . S
C3025 C3026 1.389 . S
C3026 C3025 1.389 . S
C3026 C3027 1.387 . S
C3027 H3012 0.930 . S
C3027 C3022 1.390 . S
C3027 C3026 1.387 . S
H3028 C3040 0.930 . S
H3029 C3042 0.930 . S
H3030 C3043 0.930 . S
H3031 C3047 0.959 . S
H3032 C3047 0.959 . S
H3033 C3047 0.961 . S
H3034 C3048 0.960 . S
H3035 C3048 0.961 . S
H3036 C3048 0.959 . S
H3037 C3051 0.929 . S
H3038 C3052 0.931 . S
H3039 C3054 0.930 . S
C3040 H3028 0.930 . S
C3040 C3041 1.399 . S
C3040 C3045 1.399 . S
C3041 C3040 1.399 . S
C3041 C3042 1.376 . S
C3042 H3029 0.930 . S
C3042 C3041 1.376 . S
C3042 C3043 1.388 . S
C3043 H3030 0.930 . S
C3043 C3042 1.388 . S
C3043 C3044 1.390 . S
C3044 C3043 1.390 . S
C3044 C3045 1.394 . S
C3044 C3050 1.465 . S
C3045 C3040 1.399 . S
C3045 C3044 1.394 . S
C3045 C3046 1.516 . S
C3046 C3045 1.516 . S
C3046 C3047 1.502 . S
C3046 C3048 1.561 . S
C3046 C3049 1.526 . S
C3047 H3031 0.959 . S
C3047 H3032 0.959 . S
C3047 H3033 0.961 . S
C3047 C3046 1.502 . S
C3048 H3034 0.960 . S
C3048 H3035 0.961 . S
C3048 H3036 0.959 . S
C3048 C3046 1.561 . S
C3049 C3046 1.526 . S
C3049 C3050 1.396 . S
C3049 C3054 1.390 . S
C3050 C3044 1.465 . S
C3050 C3049 1.396 . S
C3050 C3051 1.399 . S
C3051 H3037 0.929 . S
C3051 C3050 1.399 . S
C3051 C3052 1.385 . S
C3052 H3038 0.931 . S
C3052 C3051 1.385 . S
C3052 C3053 1.389 . S
C3053 C3052 1.389 . S
C3053 C3054 1.387 . S
C3054 H3039 0.930 . S
C3054 C3049 1.390 . S
C3054 C3053 1.387 . S
H3055 C3067 0.930 . S
H3056 C3069 0.930 . S
H3057 C3070 0.930 . S
H3058 C3074 0.959 . S
H3059 C3074 0.959 . S
H3060 C3074 0.961 . S
H3061 C3075 0.960 . S
H3062 C3075 0.961 . S
H3063 C3075 0.959 . S
H3064 C3078 0.929 . S
H3065 C3079 0.931 . S
H3066 C3081 0.930 . S
C3067 H3055 0.930 . S
C3067 C3068 1.399 . S
C3067 C3072 1.399 . S
C3068 C3067 1.399 . S
C3068 C3069 1.376 . S
C3069 H3056 0.930 . S
C3069 C3068 1.376 . S
C3069 C3070 1.388 . S
C3070 H3057 0.930 . S
C3070 C3069 1.388 . S
C3070 C3071 1.390 . S
C3071 C3070 1.390 . S
C3071 C3072 1.394 . S
C3071 C3077 1.465 . S
C3072 C3067 1.399 . S
C3072 C3071 1.394 . S
C3072 C3073 1.516 . S
C3073 C3072 1.516 . S
C3073 C3074 1.502 . S
C3073 C3075 1.561 . S
C3073 C3076 1.526 . S
C3074 H3058 0.959 . S
C3074 H3059 0.959 . S
C3074 H3060 0.961 . S
C3074 C3073 1.502 . S
C3075 H3061 0.960 . S
C3075 H3062 0.961 . S
C3075 H3063 0.959 . S
C3075 C3073 1.561 . S
C3076 C3073 1.526 . S
C3076 C3077 1.396 . S
C3076 C3081 1.390 . S
C3077 C3071 1.465 . S
C3077 C3076 1.396 . S
C3077 C3078 1.399 . S
C3078 H3064 0.929 . S
C3078 C3077 1.399 . S
C3078 C3079 1.385 . S
C3079 H3065 0.931 . S
C3079 C3078 1.385 . S
C3079 C3080 1.389 . S
C3080 C3079 1.389 . S
C3080 C3081 1.387 . S
C3081 H3066 0.930 . S
C3081 C3076 1.390 . S
C3081 C3080 1.387 . S
H3082 C3094 0.930 . S
H3083 C3096 0.930 . S
H3084 C3097 0.930 . S
H3085 C3101 0.959 . S
H3086 C3101 0.959 . S
H3087 C3101 0.961 . S
H3088 C3102 0.960 . S
H3089 C3102 0.961 . S
H3090 C3102 0.959 . S
H3091 C3105 0.929 . S
H3092 C3106 0.931 . S
H3093 C3108 0.930 . S
C3094 H3082 0.930 . S
C3094 C3095 1.399 . S
C3094 C3099 1.399 . S
C3095 C3094 1.399 . S
C3095 C3096 1.376 . S
C3096 H3083 0.930 . S
C3096 C3095 1.376 . S
C3096 C3097 1.388 . S
C3097 H3084 0.930 . S
C3097 C3096 1.388 . S
C3097 C3098 1.390 . S
C3098 C3097 1.390 . S
C3098 C3099 1.394 . S
C3098 C3104 1.465 . S
C3099 C3094 1.399 . S
C3099 C3098 1.394 . S
C3099 C3100 1.516 . S
C3100 C3099 1.516 . S
C3100 C3101 1.502 . S
C3100 C3102 1.561 . S
C3100 C3103 1.526 . S
C3101 H3085 0.959 . S
C3101 H3086 0.959 . S
C3101 H3087 0.961 . S
C3101 C3100 1.502 . S
C3102 H3088 0.960 . S
C3102 H3089 0.961 . S
C3102 H3090 0.959 . S
C3102 C3100 1.561 . S
C3103 C3100 1.526 . S
C3103 C3104 1.396 . S
C3103 C3108 1.390 . S
C3104 C3098 1.465 . S
C3104 C3103 1.396 . S
C3104 C3105 1.399 . S
C3105 H3091 0.929 . S
C3105 C3104 1.399 . S
C3105 C3106 1.385 . S
C3106 H3092 0.931 . S
C3106 C3105 1.385 . S
C3106 C3107 1.389 . S
C3107 C3106 1.389 . S
C3107 C3108 1.387 . S
C3108 H3093 0.930 . S
C3108 C3103 1.390 . S
C3108 C3107 1.387 . S
H3109 C3121 0.930 . S
H3110 C3123 0.930 . S
H3111 C3124 0.930 . S
H3112 C3128 0.959 . S
H3113 C3128 0.959 . S
H3114 C3128 0.961 . S
H3115 C3129 0.960 . S
H3116 C3129 0.961 . S
H3117 C3129 0.959 . S
H3118 C3132 0.929 . S
H3119 C3133 0.931 . S
H3120 C3135 0.930 . S
C3121 H3109 0.930 . S
C3121 C3122 1.399 . S
C3121 C3126 1.399 . S
C3122 C3121 1.399 . S
C3122 C3123 1.376 . S
C3123 H3110 0.930 . S
C3123 C3122 1.376 . S
C3123 C3124 1.388 . S
C3124 H3111 0.930 . S
C3124 C3123 1.388 . S
C3124 C3125 1.390 . S
C3125 C3124 1.390 . S
C3125 C3126 1.394 . S
C3125 C3131 1.465 . S
C3126 C3121 1.399 . S
C3126 C3125 1.394 . S
C3126 C3127 1.516 . S
C3127 C3126 1.516 . S
C3127 C3128 1.502 . S
C3127 C3129 1.561 . S
C3127 C3130 1.526 . S
C3128 H3112 0.959 . S
C3128 H3113 0.959 . S
C3128 H3114 0.961 . S
C3128 C3127 1.502 . S
C3129 H3115 0.960 . S
C3129 H3116 0.961 . S
C3129 H3117 0.959 . S
C3129 C3127 1.561 . S
C3130 C3127 1.526 . S
C3130 C3131 1.396 . S
C3130 C3135 1.390 . S
C3131 C3125 1.465 . S
C3131 C3130 1.396 . S
C3131 C3132 1.399 . S
C3132 H3118 0.929 . S
C3132 C3131 1.399 . S
C3132 C3133 1.385 . S
C3133 H3119 0.931 . S
C3133 C3132 1.385 . S
C3133 C3134 1.389 . S
C3134 C3133 1.389 . S
C3134 C3135 1.387 . S
C3135 H3120 0.930 . S
C3135 C3130 1.390 . S
C3135 C3134 1.387 . S
H3136 C3148 0.930 . S
H3137 C3150 0.930 . S
H3138 C3151 0.930 . S
H3139 C3155 0.959 . S
H3140 C3155 0.959 . S
H3141 C3155 0.961 . S
H3142 C3156 0.960 . S
H3143 C3156 0.961 . S
H3144 C3156 0.959 . S
H3145 C3159 0.929 . S
H3146 C3160 0.931 . S
H3147 C3162 0.930 . S
C3148 H3136 0.930 . S
C3148 C3149 1.399 . S
C3148 C3153 1.399 . S
C3149 C3148 1.399 . S
C3149 C3150 1.376 . S
C3150 H3137 0.930 . S
C3150 C3149 1.376 . S
C3150 C3151 1.388 . S
C3151 H3138 0.930 . S
C3151 C3150 1.388 . S
C3151 C3152 1.390 . S
C3152 C3151 1.390 . S
C3152 C3153 1.394 . S
C3152 C3158 1.465 . S
C3153 C3148 1.399 . S
C3153 C3152 1.394 . S
C3153 C3154 1.516 . S
C3154 C3153 1.516 . S
C3154 C3155 1.502 . S
C3154 C3156 1.561 . S
C3154 C3157 1.526 . S
C3155 H3139 0.959 . S
C3155 H3140 0.959 . S
C3155 H3141 0.961 . S
C3155 C3154 1.502 . S
C3156 H3142 0.960 . S
C3156 H3143 0.961 . S
C3156 H3144 0.959 . S
C3156 C3154 1.561 . S
C3157 C3154 1.526 . S
C3157 C3158 1.396 . S
C3157 C3162 1.390 . S
C3158 C3152 1.465 . S
C3158 C3157 1.396 . S
C3158 C3159 1.399 . S
C3159 H3145 0.929 . S
C3159 C3158 1.399 . S
C3159 C3160 1.385 . S
C3160 H3146 0.931 . S
C3160 C3159 1.385 . S
C3160 C3161 1.389 . S
C3161 C3160 1.389 . S
C3161 C3162 1.387 . S
C3162 H3147 0.930 . S
C3162 C3157 1.390 . S
C3162 C3161 1.387 . S
H3163 C3175 0.930 . S
H3164 C3177 0.930 . S
H3165 C3178 0.930 . S
H3166 C3182 0.959 . S
H3167 C3182 0.959 . S
H3168 C3182 0.961 . S
H3169 C3183 0.960 . S
H3170 C3183 0.961 . S
H3171 C3183 0.959 . S
H3172 C3186 0.929 . S
H3173 C3187 0.931 . S
H3174 C3189 0.930 . S
C3175 H3163 0.930 . S
C3175 C3176 1.399 . S
C3175 C3180 1.399 . S
C3176 C3175 1.399 . S
C3176 C3177 1.376 . S
C3177 H3164 0.930 . S
C3177 C3176 1.376 . S
C3177 C3178 1.388 . S
C3178 H3165 0.930 . S
C3178 C3177 1.388 . S
C3178 C3179 1.390 . S
C3179 C3178 1.390 . S
C3179 C3180 1.394 . S
C3179 C3185 1.465 . S
C3180 C3175 1.399 . S
C3180 C3179 1.394 . S
C3180 C3181 1.516 . S
C3181 C3180 1.516 . S
C3181 C3182 1.502 . S
C3181 C3183 1.561 . S
C3181 C3184 1.526 . S
C3182 H3166 0.959 . S
C3182 H3167 0.959 . S
C3182 H3168 0.961 . S
C3182 C3181 1.502 . S
C3183 H3169 0.960 . S
C3183 H3170 0.961 . S
C3183 H3171 0.959 . S
C3183 C3181 1.561 . S
C3184 C3181 1.526 . S
C3184 C3185 1.396 . S
C3184 C3189 1.390 . S
C3185 C3179 1.465 . S
C3185 C3184 1.396 . S
C3185 C3186 1.399 . S
C3186 H3172 0.929 . S
C3186 C3185 1.399 . S
C3186 C3187 1.385 . S
C3187 H3173 0.931 . S
C3187 C3186 1.385 . S
C3187 C3188 1.389 . S
C3188 C3187 1.389 . S
C3188 C3189 1.387 . S
C3189 H3174 0.930 . S
C3189 C3184 1.390 . S
C3189 C3188 1.387 . S
H3190 C3202 0.930 . S
H3191 C3204 0.930 . S
H3192 C3205 0.930 . S
H3193 C3209 0.959 . S
H3194 C3209 0.959 . S
H3195 C3209 0.961 . S
H3196 C3210 0.960 . S
H3197 C3210 0.961 . S
H3198 C3210 0.959 . S
H3199 C3213 0.929 . S
H3200 C3214 0.931 . S
H3201 C3216 0.930 . S
C3202 H3190 0.930 . S
C3202 C3203 1.399 . S
C3202 C3207 1.399 . S
C3203 C3202 1.399 . S
C3203 C3204 1.376 . S
C3204 H3191 0.930 . S
C3204 C3203 1.376 . S
C3204 C3205 1.388 . S
C3205 H3192 0.930 . S
C3205 C3204 1.388 . S
C3205 C3206 1.390 . S
C3206 C3205 1.390 . S
C3206 C3207 1.394 . S
C3206 C3212 1.465 . S
C3207 C3202 1.399 . S
C3207 C3206 1.394 . S
C3207 C3208 1.516 . S
C3208 C3207 1.516 . S
C3208 C3209 1.502 1_655 S
C3208 C3210 1.561 . S
C3208 C3211 1.502 1_655 S
C3209 H3193 0.959 . S
C3209 H3194 0.959 . S
C3209 H3195 0.961 . S
C3209 C3208 1.502 1_455 S
C3210 H3196 0.960 . S
C3210 H3197 0.961 . S
C3210 H3198 0.959 . S
C3210 C3208 1.561 . S
C3211 C3208 1.502 1_455 S
C3211 C3212 1.392 1_455 S
C3211 C3216 1.416 . S
C3212 C3206 1.465 . S
C3212 C3211 1.392 1_655 S
C3212 C3213 1.399 . S
C3213 H3199 0.929 . S
C3213 C3212 1.399 . S
C3213 C3214 1.385 1_655 S
C3214 H3200 0.931 . S
C3214 C3213 1.385 1_455 S
C3214 C3215 1.389 . S
C3215 C3214 1.389 . S
C3215 C3216 1.387 . S
C3216 H3201 0.930 . S
C3216 C3211 1.416 . S
C3216 C3215 1.387 . S
H3217 C3229 0.930 . S
H3218 C3231 0.930 . S
H3219 C3232 0.930 . S
H3220 C3236 0.959 . S
H3221 C3236 0.959 . S
H3222 C3236 0.961 . S
H3223 C3237 0.960 . S
H3224 C3237 0.961 . S
H3225 C3237 0.959 . S
H3226 C3240 0.929 . S
H3227 C3241 0.931 . S
H3228 C3243 0.930 . S
C3229 H3217 0.930 . S
C3229 C3230 1.399 . S
C3229 C3234 1.399 . S
C3230 C3229 1.399 . S
C3230 C3231 1.376 . S
C3231 H3218 0.930 . S
C3231 C3230 1.376 . S
C3231 C3232 1.388 . S
C3232 H3219 0.930 . S
C3232 C3231 1.388 . S
C3232 C3233 1.390 . S
C3233 C3232 1.390 . S
C3233 C3234 1.394 . S
C3233 C3239 1.465 . S
C3234 C3229 1.399 . S
C3234 C3233 1.394 . S
C3234 C3235 1.516 . S
C3235 C3234 1.516 . S
C3235 C3236 1.502 . S
C3235 C3237 1.561 . S
C3235 C3238 1.526 . S
C3236 H3220 0.959 . S
C3236 H3221 0.959 . S
C3236 H3222 0.961 . S
C3236 C3235 1.502 . S
C3237 H3223 0.960 . S
C3237 H3224 0.961 . S
C3237 H3225 0.959 . S
C3237 C3235 1.561 . S
C3238 C3235 1.526 . S
C3238 C3239 1.396 . S
C3238 C3243 1.390 . S
C3239 C3233 1.465 . S
C3239 C3238 1.396 . S
C3239 C3240 1.399 . S
C3240 H3226 0.929 . S
C3240 C3239 1.399 . S
C3240 C3241 1.385 . S
C3241 H3227 0.931 . S
C3241 C3240 1.385 . S
C3241 C3242 1.389 . S
C3242 C3241 1.389 . S
C3242 C3243 1.387 . S
C3243 H3228 0.930 . S
C3243 C3238 1.390 . S
C3243 C3242 1.387 . S
H3244 C3256 0.930 . S
H3245 C3258 0.930 . S
H3246 C3259 0.930 . S
H3247 C3263 0.959 . S
H3248 C3263 0.959 . S
H3249 C3263 0.961 . S
H3250 C3264 0.960 . S
H3251 C3264 0.961 . S
H3252 C3264 0.959 . S
H3253 C3267 0.929 . S
H3254 C3268 0.931 . S
H3255 C3270 0.930 . S
C3256 H3244 0.930 . S
C3256 C3257 1.399 . S
C3256 C3261 1.399 . S
C3257 C3256 1.399 . S
C3257 C3258 1.376 . S
C3258 H3245 0.930 . S
C3258 C3257 1.376 . S
C3258 C3259 1.388 . S
C3259 H3246 0.930 . S
C3259 C3258 1.388 . S
C3259 C3260 1.390 . S
C3260 C3259 1.390 . S
C3260 C3261 1.394 . S
C3260 C3266 1.465 . S
C3261 C3256 1.399 . S
C3261 C3260 1.394 . S
C3261 C3262 1.516 . S
C3262 C3261 1.516 . S
C3262 C3263 1.502 . S
C3262 C3264 1.561 . S
C3262 C3265 1.526 . S
C3263 H3247 0.959 . S
C3263 H3248 0.959 . S
C3263 H3249 0.961 . S
C3263 C3262 1.502 . S
C3264 H3250 0.960 . S
C3264 H3251 0.961 . S
C3264 H3252 0.959 . S
C3264 C3262 1.561 . S
C3265 C3262 1.526 . S
C3265 C3266 1.396 . S
C3265 C3270 1.390 . S
C3266 C3260 1.465 . S
C3266 C3265 1.396 . S
C3266 C3267 1.399 . S
C3267 H3253 0.929 . S
C3267 C3266 1.399 . S
C3267 C3268 1.385 . S
C3268 H3254 0.931 . S
C3268 C3267 1.385 . S
C3268 C3269 1.389 . S
C3269 C3268 1.389 . S
C3269 C3270 1.387 . S
C3270 H3255 0.930 . S
C3270 C3265 1.390 . S
C3270 C3269 1.387 . S
H3271 C3283 0.930 . S
H3272 C3285 0.930 . S
H3273 C3286 0.930 . S
H3274 C3290 0.959 . S
H3275 C3290 0.959 . S
H3276 C3290 0.961 . S
H3277 C3291 0.960 . S
H3278 C3291 0.961 . S
H3279 C3291 0.959 . S
H3280 C3294 0.929 . S
H3281 C3295 0.931 . S
H3282 C3297 0.930 . S
C3283 H3271 0.930 . S
C3283 C3284 1.399 . S
C3283 C3288 1.399 . S
C3284 C3283 1.399 . S
C3284 C3285 1.376 . S
C3285 H3272 0.930 . S
C3285 C3284 1.376 . S
C3285 C3286 1.388 . S
C3286 H3273 0.930 . S
C3286 C3285 1.388 . S
C3286 C3287 1.390 . S
C3287 C3286 1.390 . S
C3287 C3288 1.394 . S
C3287 C3293 1.465 . S
C3288 C3283 1.399 . S
C3288 C3287 1.394 . S
C3288 C3289 1.516 . S
C3289 C3288 1.516 . S
C3289 C3290 1.502 . S
C3289 C3291 1.561 . S
C3289 C3292 1.526 . S
C3290 H3274 0.959 . S
C3290 H3275 0.959 . S
C3290 H3276 0.961 . S
C3290 C3289 1.502 . S
C3291 H3277 0.960 . S
C3291 H3278 0.961 . S
C3291 H3279 0.959 . S
C3291 C3289 1.561 . S
C3292 C3289 1.526 . S
C3292 C3293 1.396 . S
C3292 C3297 1.390 . S
C3293 C3287 1.465 . S
C3293 C3292 1.396 . S
C3293 C3294 1.399 . S
C3294 H3280 0.929 . S
C3294 C3293 1.399 . S
C3294 C3295 1.385 . S
C3295 H3281 0.931 . S
C3295 C3294 1.385 . S
C3295 C3296 1.389 . S
C3296 C3295 1.389 . S
C3296 C3297 1.387 . S
C3297 H3282 0.930 . S
C3297 C3292 1.390 . S
C3297 C3296 1.387 . S
H3298 C3310 0.930 . S
H3299 C3312 0.930 . S
H3300 C3313 0.930 . S
H3301 C3317 0.959 . S
H3302 C3317 0.959 . S
H3303 C3317 0.961 . S
H3304 C3318 0.960 . S
H3305 C3318 0.961 . S
H3306 C3318 0.959 . S
H3307 C3321 0.929 . S
H3308 C3322 0.931 1_455 S
H3309 C3324 0.930 . S
C3310 H3298 0.930 . S
C3310 C3311 1.399 . S
C3310 C3315 1.399 . S
C3311 C3310 1.399 . S
C3311 C3312 1.376 . S
C3312 H3299 0.930 . S
C3312 C3311 1.376 . S
C3312 C3313 1.388 . S
C3313 H3300 0.930 . S
C3313 C3312 1.388 . S
C3313 C3314 1.390 . S
C3314 C3313 1.390 . S
C3314 C3315 1.394 . S
C3314 C3320 1.465 . S
C3315 C3310 1.399 . S
C3315 C3314 1.394 . S
C3315 C3316 1.516 . S
C3316 C3315 1.516 . S
C3316 C3317 1.502 . S
C3316 C3318 1.561 . S
C3316 C3319 1.526 . S
C3317 H3301 0.959 . S
C3317 H3302 0.959 . S
C3317 H3303 0.961 . S
C3317 C3316 1.502 . S
C3318 H3304 0.960 . S
C3318 H3305 0.961 . S
C3318 H3306 0.959 . S
C3318 C3316 1.561 . S
C3319 C3316 1.526 . S
C3319 C3320 1.396 . S
C3319 C3324 1.390 . S
C3320 C3314 1.465 . S
C3320 C3319 1.396 . S
C3320 C3321 1.399 . S
C3321 H3307 0.929 . S
C3321 C3320 1.399 . S
C3321 C3322 1.385 . S
C3322 H3308 0.931 1_655 S
C3322 C3321 1.385 . S
C3322 C3323 1.389 . S
C3323 C3322 1.389 . S
C3323 C3324 1.387 . S
C3324 H3309 0.930 . S
C3324 C3319 1.390 . S
C3324 C3323 1.387 . S
H3325 C3337 0.930 . S
H3326 C3339 0.930 . S
H3327 C3340 0.930 . S
H3328 C3344 0.959 . S
H3329 C3344 0.959 . S
H3330 C3344 0.961 . S
H3331 C3345 0.960 . S
H3332 C3345 0.961 . S
H3333 C3345 0.959 . S
H3334 C3348 0.929 . S
H3335 C3349 0.931 . S
H3336 C3351 0.930 . S
C3337 H3325 0.930 . S
C3337 C3338 1.399 . S
C3337 C3342 1.399 . S
C3338 C3337 1.399 . S
C3338 C3339 1.376 . S
C3339 H3326 0.930 . S
C3339 C3338 1.376 . S
C3339 C3340 1.388 . S
C3340 H3327 0.930 . S
C3340 C3339 1.388 . S
C3340 C3341 1.390 . S
C3341 C3340 1.390 . S
C3341 C3342 1.394 . S
C3341 C3347 1.465 . S
C3342 C3337 1.399 . S
C3342 C3341 1.394 . S
C3342 C3343 1.516 . S
C3343 C3342 1.516 . S
C3343 C3344 1.502 . S
C3343 C3345 1.561 . S
C3343 C3346 1.526 . S
C3344 H3328 0.959 . S
C3344 H3329 0.959 . S
C3344 H3330 0.961 . S
C3344 C3343 1.502 . S
C3345 H3331 0.960 . S
C3345 H3332 0.961 . S
C3345 H3333 0.959 . S
C3345 C3343 1.561 . S
C3346 C3343 1.526 . S
C3346 C3347 1.396 . S
C3346 C3351 1.390 . S
C3347 C3341 1.465 . S
C3347 C3346 1.396 . S
C3347 C3348 1.399 . S
C3348 H3334 0.929 . S
C3348 C3347 1.399 . S
C3348 C3349 1.385 . S
C3349 H3335 0.931 . S
C3349 C3348 1.385 . S
C3349 C3350 1.389 . S
C3350 C3349 1.389 . S
C3350 C3351 1.387 . S
C3351 H3336 0.930 . S
C3351 C3346 1.390 . S
C3351 C3350 1.387 . S
H3352 C3364 0.930 . S
H3353 C3366 0.930 . S
H3354 C3367 0.930 . S
H3355 C3371 0.959 . S
H3356 C3371 0.959 . S
H3357 C3371 0.961 . S
H3358 C3372 0.960 . S
H3359 C3372 0.961 . S
H3360 C3372 0.959 . S
H3361 C3375 0.929 . S
H3362 C3376 0.931 . S
H3363 C3378 0.930 . S
C3364 H3352 0.930 . S
C3364 C3365 1.399 . S
C3364 C3369 1.399 . S
C3365 C3364 1.399 . S
C3365 C3366 1.376 . S
C3366 H3353 0.930 . S
C3366 C3365 1.376 . S
C3366 C3367 1.388 . S
C3367 H3354 0.930 . S
C3367 C3366 1.388 . S
C3367 C3368 1.390 . S
C3368 C3367 1.390 . S
C3368 C3369 1.394 . S
C3368 C3374 1.465 . S
C3369 C3364 1.399 . S
C3369 C3368 1.394 . S
C3369 C3370 1.516 . S
C3370 C3369 1.516 . S
C3370 C3371 1.502 . S
C3370 C3372 1.561 . S
C3370 C3373 1.526 . S
C3371 H3355 0.959 . S
C3371 H3356 0.959 . S
C3371 H3357 0.961 . S
C3371 C3370 1.502 . S
C3372 H3358 0.960 . S
C3372 H3359 0.961 . S
C3372 H3360 0.959 . S
C3372 C3370 1.561 . S
C3373 C3370 1.526 . S
C3373 C3374 1.396 . S
C3373 C3378 1.390 . S
C3374 C3368 1.465 . S
C3374 C3373 1.396 . S
C3374 C3375 1.399 . S
C3375 H3361 0.929 . S
C3375 C3374 1.399 . S
C3375 C3376 1.385 . S
C3376 H3362 0.931 . S
C3376 C3375 1.385 . S
C3376 C3377 1.389 . S
C3377 C3376 1.389 . S
C3377 C3378 1.387 . S
C3378 H3363 0.930 . S
C3378 C3373 1.390 . S
C3378 C3377 1.387 . S
H3379 C3391 0.930 . S
H3380 C3393 0.930 . S
H3381 C3394 0.930 . S
H3382 C3398 0.959 . S
H3383 C3398 0.959 . S
H3384 C3398 0.961 . S
H3385 C3399 0.960 . S
H3386 C3399 0.961 . S
H3387 C3399 0.959 . S
H3388 C3402 0.929 . S
H3389 C3403 0.931 . S
H3390 C3405 0.930 . S
C3391 H3379 0.930 . S
C3391 C3392 1.399 . S
C3391 C3396 1.399 . S
C3392 C3391 1.399 . S
C3392 C3393 1.376 . S
C3393 H3380 0.930 . S
C3393 C3392 1.376 . S
C3393 C3394 1.388 . S
C3394 H3381 0.930 . S
C3394 C3393 1.388 . S
C3394 C3395 1.390 . S
C3395 C3394 1.390 . S
C3395 C3396 1.394 . S
C3395 C3401 1.465 . S
C3396 C3391 1.399 . S
C3396 C3395 1.394 . S
C3396 C3397 1.516 . S
C3397 C3396 1.516 . S
C3397 C3398 1.502 . S
C3397 C3399 1.561 . S
C3397 C3400 1.526 . S
C3398 H3382 0.959 . S
C3398 H3383 0.959 . S
C3398 H3384 0.961 . S
C3398 C3397 1.502 . S
C3399 H3385 0.960 . S
C3399 H3386 0.961 . S
C3399 H3387 0.959 . S
C3399 C3397 1.561 . S
C3400 C3397 1.526 . S
C3400 C3401 1.396 . S
C3400 C3405 1.390 . S
C3401 C3395 1.465 . S
C3401 C3400 1.396 . S
C3401 C3402 1.399 . S
C3402 H3388 0.929 . S
C3402 C3401 1.399 . S
C3402 C3403 1.385 1_565 S
C3403 H3389 0.931 . S
C3403 C3402 1.385 1_545 S
C3403 C3404 1.389 1_545 S
C3404 C3403 1.389 1_565 S
C3404 C3405 1.387 . S
C3405 H3390 0.930 . S
C3405 C3400 1.390 . S
C3405 C3404 1.387 . S
H3406 C3418 0.930 . S
H3407 C3420 0.930 . S
H3408 C3421 0.930 . S
H3409 C3425 0.959 . S
H3410 C3425 0.959 . S
H3411 C3425 0.961 . S
H3412 C3426 0.960 . S
H3413 C3426 0.961 . S
H3414 C3426 0.959 . S
H3415 C3429 0.929 . S
H3416 C3430 0.931 . S
H3417 C3432 0.930 . S
C3418 H3406 0.930 . S
C3418 C3419 1.399 . S
C3418 C3423 1.399 . S
C3419 C3418 1.399 . S
C3419 C3420 1.376 . S
C3420 H3407 0.930 . S
C3420 C3419 1.376 . S
C3420 C3421 1.388 . S
C3421 H3408 0.930 . S
C3421 C3420 1.388 . S
C3421 C3422 1.390 . S
C3422 C3421 1.390 . S
C3422 C3423 1.394 . S
C3422 C3428 1.465 . S
C3423 C3418 1.399 . S
C3423 C3422 1.394 . S
C3423 C3424 1.516 . S
C3424 C3423 1.516 . S
C3424 C3425 1.502 . S
C3424 C3426 1.561 . S
C3424 C3427 1.526 . S
C3425 H3409 0.959 . S
C3425 H3410 0.959 . S
C3425 H3411 0.961 . S
C3425 C3424 1.502 . S
C3426 H3412 0.960 . S
C3426 H3413 0.961 . S
C3426 H3414 0.959 . S
C3426 C3424 1.561 . S
C3427 C3424 1.526 . S
C3427 C3428 1.396 . S
C3427 C3432 1.390 . S
C3428 C3422 1.465 . S
C3428 C3427 1.396 . S
C3428 C3429 1.399 . S
C3429 H3415 0.929 . S
C3429 C3428 1.399 . S
C3429 C3430 1.385 . S
C3430 H3416 0.931 . S
C3430 C3429 1.385 . S
C3430 C3431 1.389 . S
C3431 C3430 1.389 . S
C3431 C3432 1.387 . S
C3432 H3417 0.930 . S
C3432 C3427 1.390 . S
C3432 C3431 1.387 . S
H3433 C3445 0.930 . S
H3434 C3447 0.930 . S
H3435 C3448 0.930 . S
H3436 C3452 0.959 . S
H3437 C3452 0.959 . S
H3438 C3452 0.961 . S
H3439 C3453 0.960 . S
H3440 C3453 0.961 . S
H3441 C3453 0.959 . S
H3442 C3456 0.929 . S
H3443 C3457 0.931 . S
H3444 C3459 0.930 . S
C3445 H3433 0.930 . S
C3445 C3446 1.399 . S
C3445 C3450 1.399 . S
C3446 C3445 1.399 . S
C3446 C3447 1.376 1_554 S
C3447 H3434 0.930 . S
C3447 C3446 1.376 1_556 S
C3447 C3448 1.388 . S
C3448 H3435 0.930 . S
C3448 C3447 1.388 . S
C3448 C3449 1.396 . S
C3449 C3448 1.396 . S
C3449 C3450 1.387 1_556 S
C3449 C3455 1.470 . S
C3450 C3445 1.399 . S
C3450 C3449 1.387 1_554 S
C3450 C3451 1.516 . S
C3451 C3450 1.516 . S
C3451 C3452 1.502 . S
C3451 C3453 1.561 . S
C3451 C3454 1.526 . S
C3452 H3436 0.959 . S
C3452 H3437 0.959 . S
C3452 H3438 0.961 . S
C3452 C3451 1.502 . S
C3453 H3439 0.960 . S
C3453 H3440 0.961 . S
C3453 H3441 0.959 . S
C3453 C3451 1.561 . S
C3454 C3451 1.526 . S
C3454 C3455 1.359 1_554 S
C3454 C3459 1.390 . S
C3455 C3449 1.470 . S
C3455 C3454 1.359 1_556 S
C3455 C3456 1.424 . S
C3456 H3442 0.929 . S
C3456 C3455 1.424 . S
C3456 C3457 1.385 . S
C3457 H3443 0.931 . S
C3457 C3456 1.385 . S
C3457 C3458 1.389 1_556 S
C3458 C3457 1.389 1_554 S
C3458 C3459 1.387 . S
C3459 H3444 0.930 . S
C3459 C3454 1.390 . S
C3459 C3458 1.387 . S
H3460 C3472 0.930 . S
H3461 C3474 0.930 . S
H3462 C3475 0.930 . S
H3463 C3479 0.959 . S
H3464 C3479 0.959 . S
H3465 C3479 0.961 . S
H3466 C3480 0.960 . S
H3467 C3480 0.961 . S
H3468 C3480 0.959 . S
H3469 C3483 0.929 . S
H3470 C3484 0.931 . S
H3471 C3486 0.930 . S
C3472 H3460 0.930 . S
C3472 C3473 1.399 . S
C3472 C3477 1.399 . S
C3473 C3472 1.399 . S
C3473 C3474 1.376 . S
C3474 H3461 0.930 . S
C3474 C3473 1.376 . S
C3474 C3475 1.388 . S
C3475 H3462 0.930 . S
C3475 C3474 1.388 . S
C3475 C3476 1.390 . S
C3476 C3475 1.390 . S
C3476 C3477 1.394 . S
C3476 C3482 1.465 . S
C3477 C3472 1.399 . S
C3477 C3476 1.394 . S
C3477 C3478 1.516 . S
C3478 C3477 1.516 . S
C3478 C3479 1.502 . S
C3478 C3480 1.561 . S
C3478 C3481 1.526 . S
C3479 H3463 0.959 . S
C3479 H3464 0.959 . S
C3479 H3465 0.961 . S
C3479 C3478 1.502 . S
C3480 H3466 0.960 . S
C3480 H3467 0.961 . S
C3480 H3468 0.959 . S
C3480 C3478 1.561 . S
C3481 C3478 1.526 . S
C3481 C3482 1.396 . S
C3481 C3486 1.390 . S
C3482 C3476 1.465 . S
C3482 C3481 1.396 . S
C3482 C3483 1.399 . S
C3483 H3469 0.929 . S
C3483 C3482 1.399 . S
C3483 C3484 1.385 . S
C3484 H3470 0.931 . S
C3484 C3483 1.385 . S
C3484 C3485 1.389 . S
C3485 C3484 1.389 . S
C3485 C3486 1.387 . S
C3486 H3471 0.930 . S
C3486 C3481 1.390 . S
C3486 C3485 1.387 . S
H3487 C3499 0.930 . S
H3488 C3501 0.930 . S
H3489 C3502 0.930 . S
H3490 C3506 0.959 . S
H3491 C3506 0.959 . S
H3492 C3506 0.961 . S
H3493 C3507 0.960 . S
H3494 C3507 0.961 . S
H3495 C3507 0.959 . S
H3496 C3510 0.929 . S
H3497 C3511 0.931 . S
H3498 C3513 0.930 . S
C3499 H3487 0.930 . S
C3499 C3500 1.399 . S
C3499 C3504 1.399 . S
C3500 C3499 1.399 . S
C3500 C3501 1.376 1_554 S
C3501 H3488 0.930 . S
C3501 C3500 1.376 1_556 S
C3501 C3502 1.388 . S
C3502 H3489 0.930 . S
C3502 C3501 1.388 . S
C3502 C3503 1.390 . S
C3503 C3502 1.390 . S
C3503 C3504 1.394 1_556 S
C3503 C3509 1.465 . S
C3504 C3499 1.399 . S
C3504 C3503 1.394 1_554 S
C3504 C3505 1.516 . S
C3505 C3504 1.516 . S
C3505 C3506 1.502 . S
C3505 C3507 1.561 . S
C3505 C3508 1.526 . S
C3506 H3490 0.959 . S
C3506 H3491 0.959 . S
C3506 H3492 0.961 . S
C3506 C3505 1.502 . S
C3507 H3493 0.960 . S
C3507 H3494 0.961 . S
C3507 H3495 0.959 . S
C3507 C3505 1.561 . S
C3508 C3505 1.526 . S
C3508 C3509 1.396 1_554 S
C3508 C3513 1.390 . S
C3509 C3503 1.465 . S
C3509 C3508 1.396 1_556 S
C3509 C3510 1.399 . S
C3510 H3496 0.929 . S
C3510 C3509 1.399 . S
C3510 C3511 1.385 . S
C3511 H3497 0.931 . S
C3511 C3510 1.385 . S
C3511 C3512 1.389 . S
C3512 C3511 1.389 . S
C3512 C3513 1.387 1_556 S
C3513 H3498 0.930 . S
C3513 C3508 1.390 . S
C3513 C3512 1.387 1_554 S
H3514 C3526 0.930 . S
H3515 C3528 0.930 . S
H3516 C3529 0.930 . S
H3517 C3533 0.959 . S
H3518 C3533 0.959 . S
H3519 C3533 0.961 . S
H3520 C3534 0.960 . S
H3521 C3534 0.961 . S
H3522 C3534 0.959 . S
H3523 C3537 0.929 . S
H3524 C3538 0.931 . S
H3525 C3540 0.930 . S
C3526 H3514 0.930 . S
C3526 C3527 1.399 . S
C3526 C3531 1.399 . S
C3527 C3526 1.399 . S
C3527 C3528 1.376 . S
C3528 H3515 0.930 . S
C3528 C3527 1.376 . S
C3528 C3529 1.388 . S
C3529 H3516 0.930 . S
C3529 C3528 1.388 . S
C3529 C3530 1.390 . S
C3530 C3529 1.390 . S
C3530 C3531 1.394 . S
C3530 C3536 1.465 . S
C3531 C3526 1.399 . S
C3531 C3530 1.394 . S
C3531 C3532 1.516 . S
C3532 C3531 1.516 . S
C3532 C3533 1.502 . S
C3532 C3534 1.561 . S
C3532 C3535 1.526 . S
C3533 H3517 0.959 . S
C3533 H3518 0.959 . S
C3533 H3519 0.961 . S
C3533 C3532 1.502 . S
C3534 H3520 0.960 . S
C3534 H3521 0.961 . S
C3534 H3522 0.959 . S
C3534 C3532 1.561 . S
C3535 C3532 1.526 . S
C3535 C3536 1.396 . S
C3535 C3540 1.390 . S
C3536 C3530 1.465 . S
C3536 C3535 1.396 . S
C3536 C3537 1.399 . S
C3537 H3523 0.929 . S
C3537 C3536 1.399 . S
C3537 C3538 1.385 . S
C3538 H3524 0.931 . S
C3538 C3537 1.385 . S
C3538 C3539 1.389 . S
C3539 C3538 1.389 . S
C3539 C3540 1.387 . S
C3540 H3525 0.930 . S
C3540 C3535 1.390 . S
C3540 C3539 1.387 . S
H3541 C3553 0.930 . S
H3542 C3555 0.930 . S
H3543 C3556 0.930 . S
H3544 C3560 0.959 . S
H3545 C3560 0.959 . S
H3546 C3560 0.961 . S
H3547 C3561 0.960 . S
H3548 C3561 0.961 . S
H3549 C3561 0.959 . S
H3550 C3564 0.929 . S
H3551 C3565 0.931 . S
H3552 C3567 0.930 . S
C3553 H3541 0.930 . S
C3553 C3554 1.399 . S
C3553 C3558 1.399 . S
C3554 C3553 1.399 . S
C3554 C3555 1.376 . S
C3555 H3542 0.930 . S
C3555 C3554 1.376 . S
C3555 C3556 1.388 . S
C3556 H3543 0.930 . S
C3556 C3555 1.388 . S
C3556 C3557 1.390 . S
C3557 C3556 1.390 . S
C3557 C3558 1.394 . S
C3557 C3563 1.465 . S
C3558 C3553 1.399 . S
C3558 C3557 1.394 . S
C3558 C3559 1.516 . S
C3559 C3558 1.516 . S
C3559 C3560 1.502 . S
C3559 C3561 1.561 . S
C3559 C3562 1.526 . S
C3560 H3544 0.959 . S
C3560 H3545 0.959 . S
C3560 H3546 0.961 . S
C3560 C3559 1.502 . S
C3561 H3547 0.960 . S
C3561 H3548 0.961 . S
C3561 H3549 0.959 . S
C3561 C3559 1.561 . S
C3562 C3559 1.526 . S
C3562 C3563 1.396 . S
C3562 C3567 1.390 . S
C3563 C3557 1.465 . S
C3563 C3562 1.396 . S
C3563 C3564 1.399 . S
C3564 H3550 0.929 . S
C3564 C3563 1.399 . S
C3564 C3565 1.385 . S
C3565 H3551 0.931 . S
C3565 C3564 1.385 . S
C3565 C3566 1.389 . S
C3566 C3565 1.389 . S
C3566 C3567 1.387 . S
C3567 H3552 0.930 . S
C3567 C3562 1.390 . S
C3567 C3566 1.387 . S
C989 C105 2.262 . S
C1001 C338 2.254 1_556 S
C1016 C65 2.181 . S
C1028 C395 2.173 . S
C1043 C73 1.263 . S
C1055 C418 1.246 . S
C1082 C472 1.414 . S
C1070 C92 1.422 . S
C1097 C17 1.399 . S
C1109 C512 1.369 . S
C1136 C543 0.537 . S
C1124 C37 0.514 . S
C1163 C595 1.349 . S
C1151 C49 1.164 . S
C1178 C8 1.816 . S
C1190 C618 1.808 . S
C1217 C355 2.462 . S
C1205 C231 2.393 . S
C1232 C241 0.558 . S
C1244 C392 0.551 . S
C1271 C435 1.322 . S
C1259 C273 1.313 . S
C1298 C458 1.350 . S
C1286 C171 1.355 . S
C1313 C227 1.926 . S
C1325 C498 1.915 . S
C1352 C546 1.433 . S
C1340 C245 1.399 . S
C1379 C592 0.349 . S
C1367 C269 0.385 . S
C1406 C635 2.050 . S
C1394 C175 2.051 . S
C1433 C352 1.441 1_565 S
C1421 C162 1.550 . S
C1448 C289 2.008 . S
C1460 C675 2.005 . S
C1487 C707 2.636 . S
C1475 C330 2.655 . S
C1514 C738 0.661 1_655 S
C1502 C317 0.685 . S
C1529 C120 1.450 . S
C1541 C632 1.445 . S
C1556 C134 1.578 . S
C1568 C432 1.528 . S
C1583 C331 2.262 . S
C1595 C795 2.237 . S
C1622 C818 0.632 . S
C1610 C303 0.536 . S
C1649 C347 2.245 . S
C1637 C59 2.248 . S
C1676 C826 2.216 . S
C1664 C107 2.196 . S
C1691 C91 1.279 . S
C1703 C427 1.263 . S
C1718 C78 1.417 . S
C1730 C783 1.447 . S
C1757 C503 1.311 . S
C1745 C7 1.384 . S
C1772 C51 0.595 . S
C1784 C712 0.605 . S
C1811 C586 1.364 . S
C1799 C31 1.360 . S
C1838 C867 1.806 . S
C1826 C22 1.796 . S
C1865 C346 2.495 . S
C1853 C143 2.507 . S
C1892 C823 0.539 . S
C1880 C315 0.662 . S
C1907 C115 1.350 . S
C1919 C426 1.334 . S
C1934 C287 1.380 . S
C1946 C787 1.382 . S
C1961 C147 1.826 . S
C1973 C507 1.953 . S
C2000 C715 1.427 . S
C1988 C311 1.474 . S
C2015 C119 0.564 1_545 S
C2027 C583 0.363 . S
C2042 C283 2.078 . S
C2054 C866 2.080 . S
C2069 C190 1.502 . S
C2081 C343 1.527 . S
C2096 C177 2.029 . S
C2108 C666 2.049 . S
C2123 C260 2.654 . S
C2135 C538 2.659 . S
C2150 C247 0.672 . S
C2162 C747 0.677 . S
C2189 C863 1.343 . S
C2177 C274 1.448 . S
C2204 C218 1.600 . S
C2216 C423 1.523 . S
C2243 C466 2.278 . S
C2231 C261 2.302 . S
C2270 C387 0.608 . S
C2258 C205 0.564 . S
C2285 C77 2.258 . S
C2297 C898 2.261 . S
C2324 C835 2.177 . S
C2312 C93 2.181 . S
C2339 C101 1.263 . S
C2351 C938 1.246 . S
C2366 C64 1.419 . S
C2378 C792 1.418 . S
C2393 C45 1.427 . S
C2405 C672 1.317 . S
C2432 C703 0.516 . S
C2420 C9 0.514 . S
C2459 C755 1.328 . S
C2447 C21 1.134 . S
C2486 C858 1.794 . S
C2474 C36 1.828 . S
C2513 C915 2.474 . S
C2501 C259 2.409 . S
C2528 C185 0.488 . S
C2540 C832 0.660 . S
C2567 C955 1.314 . S
C2555 C203 1.276 . S
C2594 C778 1.336 . S
C2582 C213 1.345 . S
C2621 C658 1.880 . S
C2609 C255 1.911 . S
C2636 C189 1.423 . S
C2648 C706 1.442 . S
C2675 C752 0.523 . S
C2663 C199 0.336 . S
C2690 C217 2.052 . S
C2702 C875 2.051 . S
C2729 C912 1.510 . S
C2717 C316 1.519 . S
C2744 C135 2.011 . S
C2756 C515 2.015 . S
C2783 C547 2.636 . S
C2771 C148 2.655 . S
C2810 C578 0.655 . S
C2798 C163 0.678 . S
C2837 C872 1.457 . S
C2825 C302 1.425 . S
C2852 C288 1.598 . S
C2864 C952 1.513 . S
C2891 C475 2.249 . S
C2879 C149 2.254 . S
C2918 C378 0.509 . S
C2906 C121 0.529 . S
C2933 C87 2.249 . S
C2945 C907 2.239 . S
C2972 C386 2.207 . S
C2960 C79 2.210 . S
C2987 C63 1.311 . S
C2999 C947 1.323 . S
C3014 C106 1.418 . S
C3026 C463 1.446 . S
C3041 C35 1.342 . S
C3053 C663 1.349 . S
C3080 C552 0.555 . S
C3068 C23 0.544 . S
C3095 C3 1.327 . S
C3107 C746 1.384 . S
C3122 C50 1.786 . S
C3134 C627 1.776 . S
C3161 C906 2.496 . S
C3149 C325 2.505 . S
C3176 C161 0.624 . S
C3188 C383 0.532 . S
C3215 C946 1.331 . S
C3203 C297 1.350 . S
C3230 C133 1.377 . S
C3242 C467 1.381 . S
C3257 C329 1.844 . S
C3269 C667 1.918 . S
C3296 C555 1.462 . S
C3284 C157 1.476 . S
C3311 C301 0.371 . S
C3323 C743 0.508 . S
C3350 C626 2.050 . S
C3338 C129 2.095 . S
C3377 C903 1.453 . S
C3365 C246 1.554 . S
C3404 C506 2.040 1_665 S
C3392 C219 2.049 . S
C3419 C232 2.677 . S
C3431 C698 2.627 . S
C3458 C587 0.721 . S
C3446 C191 0.693 . S
C3473 C204 1.375 . S
C3485 C623 1.432 . S
C3500 C176 1.551 . S
C3512 C943 1.581 . S
C3539 C786 2.290 . S
C3527 C233 2.280 1_565 S
C3566 C827 0.578 . S
C3554 C275 0.566 . S
