# Generated by pormake.
# Topology iac, (4,6)-cn, num edge types: 1
# Building blocks:
#     Node 0, Type 0, BuildingBlock: NAHDIM_clean_sbu_0, # of connection points: 4
#     Node 1, Type 0, BuildingBlock: NAHDIM_clean_sbu_0, # of connection points: 4
#     Node 2, Type 0, BuildingBlock: NAHDIM_clean_sbu_0, # of connection points: 4
#     Node 3, Type 0, BuildingBlock: NAHDIM_clean_sbu_0, # of connection points: 4
#     Node 4, Type 0, BuildingBlock: NAHDIM_clean_sbu_0, # of connection points: 4
#     Node 5, Type 0, BuildingBlock: NAHDIM_clean_sbu_0, # of connection points: 4
#     Node 6, Type 0, BuildingBlock: NAHDIM_clean_sbu_0, # of connection points: 4
#     Node 7, Type 0, BuildingBlock: NAHDIM_clean_sbu_0, # of connection points: 4
#     Node 8, Type 0, BuildingBlock: NAHDIM_clean_sbu_0, # of connection points: 4
#     Node 9, Type 0, BuildingBlock: NAHDIM_clean_sbu_0, # of connection points: 4
#     Node 10, Type 0, BuildingBlock: NAHDIM_clean_sbu_0, # of connection points: 4
#     Node 11, Type 0, BuildingBlock: NAHDIM_clean_sbu_0, # of connection points: 4
#     Node 12, Type 0, BuildingBlock: NAHDIM_clean_sbu_0, # of connection points: 4
#     Node 13, Type 0, BuildingBlock: NAHDIM_clean_sbu_0, # of connection points: 4
#     Node 14, Type 0, BuildingBlock: NAHDIM_clean_sbu_0, # of connection points: 4
#     Node 15, Type 0, BuildingBlock: NAHDIM_clean_sbu_0, # of connection points: 4
#     Node 16, Type 0, BuildingBlock: NAHDIM_clean_sbu_0, # of connection points: 4
#     Node 17, Type 0, BuildingBlock: NAHDIM_clean_sbu_0, # of connection points: 4
#     Node 18, Type 0, BuildingBlock: NAHDIM_clean_sbu_0, # of connection points: 4
#     Node 19, Type 0, BuildingBlock: NAHDIM_clean_sbu_0, # of connection points: 4
#     Node 20, Type 0, BuildingBlock: NAHDIM_clean_sbu_0, # of connection points: 4
#     Node 21, Type 0, BuildingBlock: NAHDIM_clean_sbu_0, # of connection points: 4
#     Node 22, Type 0, BuildingBlock: NAHDIM_clean_sbu_0, # of connection points: 4
#     Node 23, Type 0, BuildingBlock: NAHDIM_clean_sbu_0, # of connection points: 4
#     Node 24, Type 1, BuildingBlock: FUNLAD_clean_sbu_0, # of connection points: 6
#     Node 25, Type 1, BuildingBlock: FUNLAD_clean_sbu_0, # of connection points: 6
#     Node 26, Type 1, BuildingBlock: FUNLAD_clean_sbu_0, # of connection points: 6
#     Node 27, Type 1, BuildingBlock: FUNLAD_clean_sbu_0, # of connection points: 6
#     Node 28, Type 1, BuildingBlock: FUNLAD_clean_sbu_0, # of connection points: 6
#     Node 29, Type 1, BuildingBlock: FUNLAD_clean_sbu_0, # of connection points: 6
#     Node 30, Type 1, BuildingBlock: FUNLAD_clean_sbu_0, # of connection points: 6
#     Node 31, Type 1, BuildingBlock: FUNLAD_clean_sbu_0, # of connection points: 6
#     Node 32, Type 1, BuildingBlock: FUNLAD_clean_sbu_0, # of connection points: 6
#     Node 33, Type 1, BuildingBlock: FUNLAD_clean_sbu_0, # of connection points: 6
#     Node 34, Type 1, BuildingBlock: FUNLAD_clean_sbu_0, # of connection points: 6
#     Node 35, Type 1, BuildingBlock: FUNLAD_clean_sbu_0, # of connection points: 6
#     Node 36, Type 1, BuildingBlock: FUNLAD_clean_sbu_0, # of connection points: 6
#     Node 37, Type 1, BuildingBlock: FUNLAD_clean_sbu_0, # of connection points: 6
#     Node 38, Type 1, BuildingBlock: FUNLAD_clean_sbu_0, # of connection points: 6
#     Node 39, Type 1, BuildingBlock: FUNLAD_clean_sbu_0, # of connection points: 6
#     Edge 40, Type (0, 1), BuildingBlock: CIFDUS_clean_linker_0, # of connection points: 2
#     Edge 41, Type (0, 1), BuildingBlock: CIFDUS_clean_linker_0, # of connection points: 2
#     Edge 42, Type (0, 1), BuildingBlock: CIFDUS_clean_linker_0, # of connection points: 2
#     Edge 43, Type (0, 1), BuildingBlock: CIFDUS_clean_linker_0, # of connection points: 2
#     Edge 44, Type (0, 1), BuildingBlock: CIFDUS_clean_linker_0, # of connection points: 2
#     Edge 45, Type (0, 1), BuildingBlock: CIFDUS_clean_linker_0, # of connection points: 2
#     Edge 46, Type (0, 1), BuildingBlock: CIFDUS_clean_linker_0, # of connection points: 2
#     Edge 47, Type (0, 1), BuildingBlock: CIFDUS_clean_linker_0, # of connection points: 2
#     Edge 48, Type (0, 1), BuildingBlock: CIFDUS_clean_linker_0, # of connection points: 2
#     Edge 49, Type (0, 1), BuildingBlock: CIFDUS_clean_linker_0, # of connection points: 2
#     Edge 50, Type (0, 1), BuildingBlock: CIFDUS_clean_linker_0, # of connection points: 2
#     Edge 51, Type (0, 1), BuildingBlock: CIFDUS_clean_linker_0, # of connection points: 2
#     Edge 52, Type (0, 1), BuildingBlock: CIFDUS_clean_linker_0, # of connection points: 2
#     Edge 53, Type (0, 1), BuildingBlock: CIFDUS_clean_linker_0, # of connection points: 2
#     Edge 54, Type (0, 1), BuildingBlock: CIFDUS_clean_linker_0, # of connection points: 2
#     Edge 55, Type (0, 1), BuildingBlock: CIFDUS_clean_linker_0, # of connection points: 2
#     Edge 56, Type (0, 1), BuildingBlock: CIFDUS_clean_linker_0, # of connection points: 2
#     Edge 57, Type (0, 1), BuildingBlock: CIFDUS_clean_linker_0, # of connection points: 2
#     Edge 58, Type (0, 1), BuildingBlock: CIFDUS_clean_linker_0, # of connection points: 2
#     Edge 59, Type (0, 1), BuildingBlock: CIFDUS_clean_linker_0, # of connection points: 2
#     Edge 60, Type (0, 1), BuildingBlock: CIFDUS_clean_linker_0, # of connection points: 2
#     Edge 61, Type (0, 1), BuildingBlock: CIFDUS_clean_linker_0, # of connection points: 2
#     Edge 62, Type (0, 1), BuildingBlock: CIFDUS_clean_linker_0, # of connection points: 2
#     Edge 63, Type (0, 1), BuildingBlock: CIFDUS_clean_linker_0, # of connection points: 2
#     Edge 64, Type (0, 1), BuildingBlock: CIFDUS_clean_linker_0, # of connection points: 2
#     Edge 65, Type (0, 1), BuildingBlock: CIFDUS_clean_linker_0, # of connection points: 2
#     Edge 66, Type (0, 1), BuildingBlock: CIFDUS_clean_linker_0, # of connection points: 2
#     Edge 67, Type (0, 1), BuildingBlock: CIFDUS_clean_linker_0, # of connection points: 2
#     Edge 68, Type (0, 1), BuildingBlock: CIFDUS_clean_linker_0, # of connection points: 2
#     Edge 69, Type (0, 1), BuildingBlock: CIFDUS_clean_linker_0, # of connection points: 2
#     Edge 70, Type (0, 1), BuildingBlock: CIFDUS_clean_linker_0, # of connection points: 2
#     Edge 71, Type (0, 1), BuildingBlock: CIFDUS_clean_linker_0, # of connection points: 2
#     Edge 72, Type (0, 1), BuildingBlock: CIFDUS_clean_linker_0, # of connection points: 2
#     Edge 73, Type (0, 1), BuildingBlock: CIFDUS_clean_linker_0, # of connection points: 2
#     Edge 74, Type (0, 1), BuildingBlock: CIFDUS_clean_linker_0, # of connection points: 2
#     Edge 75, Type (0, 1), BuildingBlock: CIFDUS_clean_linker_0, # of connection points: 2
#     Edge 76, Type (0, 1), BuildingBlock: CIFDUS_clean_linker_0, # of connection points: 2
#     Edge 77, Type (0, 1), BuildingBlock: CIFDUS_clean_linker_0, # of connection points: 2
#     Edge 78, Type (0, 1), BuildingBlock: CIFDUS_clean_linker_0, # of connection points: 2
#     Edge 79, Type (0, 1), BuildingBlock: CIFDUS_clean_linker_0, # of connection points: 2
#     Edge 80, Type (0, 1), BuildingBlock: CIFDUS_clean_linker_0, # of connection points: 2
#     Edge 81, Type (0, 1), BuildingBlock: CIFDUS_clean_linker_0, # of connection points: 2
#     Edge 82, Type (0, 1), BuildingBlock: CIFDUS_clean_linker_0, # of connection points: 2
#     Edge 83, Type (0, 1), BuildingBlock: CIFDUS_clean_linker_0, # of connection points: 2
#     Edge 84, Type (0, 1), BuildingBlock: CIFDUS_clean_linker_0, # of connection points: 2
#     Edge 85, Type (0, 1), BuildingBlock: CIFDUS_clean_linker_0, # of connection points: 2
#     Edge 86, Type (0, 1), BuildingBlock: CIFDUS_clean_linker_0, # of connection points: 2
#     Edge 87, Type (0, 1), BuildingBlock: CIFDUS_clean_linker_0, # of connection points: 2
#     Edge 88, Type (0, 1), BuildingBlock: CIFDUS_clean_linker_0, # of connection points: 2
#     Edge 89, Type (0, 1), BuildingBlock: CIFDUS_clean_linker_0, # of connection points: 2
#     Edge 90, Type (0, 1), BuildingBlock: CIFDUS_clean_linker_0, # of connection points: 2
#     Edge 91, Type (0, 1), BuildingBlock: CIFDUS_clean_linker_0, # of connection points: 2
#     Edge 92, Type (0, 1), BuildingBlock: CIFDUS_clean_linker_0, # of connection points: 2
#     Edge 93, Type (0, 1), BuildingBlock: CIFDUS_clean_linker_0, # of connection points: 2
#     Edge 94, Type (0, 1), BuildingBlock: CIFDUS_clean_linker_0, # of connection points: 2
#     Edge 95, Type (0, 1), BuildingBlock: CIFDUS_clean_linker_0, # of connection points: 2
#     Edge 96, Type (0, 1), BuildingBlock: CIFDUS_clean_linker_0, # of connection points: 2
#     Edge 97, Type (0, 1), BuildingBlock: CIFDUS_clean_linker_0, # of connection points: 2
#     Edge 98, Type (0, 1), BuildingBlock: CIFDUS_clean_linker_0, # of connection points: 2
#     Edge 99, Type (0, 1), BuildingBlock: CIFDUS_clean_linker_0, # of connection points: 2
#     Edge 100, Type (0, 1), BuildingBlock: CIFDUS_clean_linker_0, # of connection points: 2
#     Edge 101, Type (0, 1), BuildingBlock: CIFDUS_clean_linker_0, # of connection points: 2
#     Edge 102, Type (0, 1), BuildingBlock: CIFDUS_clean_linker_0, # of connection points: 2
#     Edge 103, Type (0, 1), BuildingBlock: CIFDUS_clean_linker_0, # of connection points: 2
#     Edge 104, Type (0, 1), BuildingBlock: CIFDUS_clean_linker_0, # of connection points: 2
#     Edge 105, Type (0, 1), BuildingBlock: CIFDUS_clean_linker_0, # of connection points: 2
#     Edge 106, Type (0, 1), BuildingBlock: CIFDUS_clean_linker_0, # of connection points: 2
#     Edge 107, Type (0, 1), BuildingBlock: CIFDUS_clean_linker_0, # of connection points: 2
#     Edge 108, Type (0, 1), BuildingBlock: CIFDUS_clean_linker_0, # of connection points: 2
#     Edge 109, Type (0, 1), BuildingBlock: CIFDUS_clean_linker_0, # of connection points: 2
#     Edge 110, Type (0, 1), BuildingBlock: CIFDUS_clean_linker_0, # of connection points: 2
#     Edge 111, Type (0, 1), BuildingBlock: CIFDUS_clean_linker_0, # of connection points: 2
#     Edge 112, Type (0, 1), BuildingBlock: CIFDUS_clean_linker_0, # of connection points: 2
#     Edge 113, Type (0, 1), BuildingBlock: CIFDUS_clean_linker_0, # of connection points: 2
#     Edge 114, Type (0, 1), BuildingBlock: CIFDUS_clean_linker_0, # of connection points: 2
#     Edge 115, Type (0, 1), BuildingBlock: CIFDUS_clean_linker_0, # of connection points: 2
#     Edge 116, Type (0, 1), BuildingBlock: CIFDUS_clean_linker_0, # of connection points: 2
#     Edge 117, Type (0, 1), BuildingBlock: CIFDUS_clean_linker_0, # of connection points: 2
#     Edge 118, Type (0, 1), BuildingBlock: CIFDUS_clean_linker_0, # of connection points: 2
#     Edge 119, Type (0, 1), BuildingBlock: CIFDUS_clean_linker_0, # of connection points: 2
#     Edge 120, Type (0, 1), BuildingBlock: CIFDUS_clean_linker_0, # of connection points: 2
#     Edge 121, Type (0, 1), BuildingBlock: CIFDUS_clean_linker_0, # of connection points: 2
#     Edge 122, Type (0, 1), BuildingBlock: CIFDUS_clean_linker_0, # of connection points: 2
#     Edge 123, Type (0, 1), BuildingBlock: CIFDUS_clean_linker_0, # of connection points: 2
#     Edge 124, Type (0, 1), BuildingBlock: CIFDUS_clean_linker_0, # of connection points: 2
#     Edge 125, Type (0, 1), BuildingBlock: CIFDUS_clean_linker_0, # of connection points: 2
#     Edge 126, Type (0, 1), BuildingBlock: CIFDUS_clean_linker_0, # of connection points: 2
#     Edge 127, Type (0, 1), BuildingBlock: CIFDUS_clean_linker_0, # of connection points: 2
#     Edge 128, Type (0, 1), BuildingBlock: CIFDUS_clean_linker_0, # of connection points: 2
#     Edge 129, Type (0, 1), BuildingBlock: CIFDUS_clean_linker_0, # of connection points: 2
#     Edge 130, Type (0, 1), BuildingBlock: CIFDUS_clean_linker_0, # of connection points: 2
#     Edge 131, Type (0, 1), BuildingBlock: CIFDUS_clean_linker_0, # of connection points: 2
#     Edge 132, Type (0, 1), BuildingBlock: CIFDUS_clean_linker_0, # of connection points: 2
#     Edge 133, Type (0, 1), BuildingBlock: CIFDUS_clean_linker_0, # of connection points: 2
#     Edge 134, Type (0, 1), BuildingBlock: CIFDUS_clean_linker_0, # of connection points: 2
#     Edge 135, Type (0, 1), BuildingBlock: CIFDUS_clean_linker_0, # of connection points: 2
# Relax obj value: 0.354
# Max RMSD: 0.291
# Mean RMSD: 0.170
data_MOF--net-iac--node1-NAHDIM_clean_sbu_0--node2-FUNLAD_clean_sbu_0--edge1-CIFDUS_clean_linker_0
_symmetry_space_group_name_H-M    P1
_symmetry_Int_Tables_number       1
_symmetry_cell_setting            triclinic
loop_
_symmetry_equiv_pos_as_xyz
'x, y, z'
_cell_length_a     49.504127
_cell_length_b     46.469926
_cell_length_c     50.937336
_cell_angle_alpha  89.847297
_cell_angle_beta   92.8545
_cell_angle_gamma 90.470199
loop_
_atom_site_label
_atom_site_type_symbol
_atom_site_fract_x
_atom_site_fract_y
_atom_site_fract_z
_atom_type_partial_charge
C0 C 0.02968 0.18557 0.22933 0.0
O1 O 0.03524 0.16305 0.21509 0.0
O2 O 0.05406 0.18807 0.16735 0.0
Zn3 Zn 0.06564 0.21483 0.1959 0.0
O4 O 0.06092 0.25517 0.18159 0.0
C5 C 0.12382 0.20589 0.19712 0.0
O6 O 0.12069 0.19536 0.17325 0.0
O7 O 0.04094 0.20959 0.22484 0.0
C8 C 0.08067 0.26851 0.17199 0.0
O9 O 0.10429 0.2561 0.17197 0.0
C10 C 0.05689 0.19383 0.14329 0.0
O11 O 0.07119 0.21635 0.1366 0.0
O12 O 0.1032 0.20996 0.21039 0.0
C13 C 0.10609 0.7719 0.38207 0.0
O14 O 0.10572 0.77744 0.40734 0.0
O15 O 0.04759 0.72654 0.41311 0.0
Zn16 Zn 0.04829 0.76408 0.3907 0.0
O17 O 0.04763 0.80014 0.41436 0.0
C18 C 0.99055 0.76776 0.37496 0.0
O19 O 0.98913 0.76913 0.40062 0.0
O20 O 0.08372 0.76528 0.36987 0.0
C21 C 0.05171 0.82468 0.40394 0.0
O22 O 0.05638 0.82571 0.37878 0.0
C23 C 0.04023 0.7258 0.43679 0.0
O24 O 0.03286 0.74992 0.44766 0.0
O25 O 0.01387 0.76529 0.36552 0.0
C26 C 0.52987 0.66438 0.68568 0.0
O27 O 0.53375 0.65073 0.66367 0.0
O28 O 0.58193 0.67187 0.64366 0.0
Zn29 Zn 0.58529 0.68365 0.68116 0.0
O30 O 0.59475 0.72589 0.67843 0.0
C31 C 0.63598 0.65672 0.70598 0.0
O32 O 0.64799 0.63454 0.71736 0.0
O33 O 0.54882 0.67956 0.69645 0.0
C34 C 0.61014 0.73368 0.66035 0.0
O35 O 0.62309 0.71408 0.64746 0.0
C36 C 0.56757 0.68722 0.62776 0.0
O37 O 0.55403 0.70903 0.63668 0.0
O38 O 0.61051 0.65609 0.7015 0.0
C39 C 0.60006 0.27521 0.87211 0.0
O40 O 0.60377 0.28352 0.89667 0.0
O41 O 0.54758 0.23065 0.91236 0.0
Zn42 Zn 0.544 0.26717 0.889 0.0
O43 O 0.54515 0.30427 0.91158 0.0
C44 C 0.48442 0.26142 0.87806 0.0
O45 O 0.48475 0.25573 0.90335 0.0
O46 O 0.57623 0.26759 0.86392 0.0
C47 C 0.53431 0.30622 0.93373 0.0
O48 O 0.52224 0.28344 0.94318 0.0
C49 C 0.56235 0.22967 0.93361 0.0
O50 O 0.5757 0.25293 0.94136 0.0
O51 O 0.50693 0.26638 0.86752 0.0
C52 C 0.19249 0.98222 0.22356 0.0
O53 O 0.17863 0.98901 0.20179 0.0
O54 O 0.14009 0.0305 0.21123 0.0
Zn55 Zn 0.16377 0.03034 0.24435 0.0
O56 O 0.14195 0.02782 0.27594 0.0
C57 C 0.18061 0.08894 0.23344 0.0
O58 O 0.16775 0.08515 0.21052 0.0
O59 O 0.18988 0.99729 0.24408 0.0
C60 C 0.12461 0.04733 0.27913 0.0
O61 O 0.11924 0.06597 0.26018 0.0
C62 C 0.11646 0.01967 0.20868 0.0
O63 O 0.10544 0.00788 0.22908 0.0
O64 O 0.18286 0.06813 0.24954 0.0
C65 C 0.24555 0.94168 0.57843 0.0
O66 O 0.24466 0.92256 0.59742 0.0
O67 O 0.28685 0.88184 0.5948 0.0
Zn68 Zn 0.29555 0.9126 0.56807 0.0
O69 O 0.29547 0.89359 0.53286 0.0
C70 C 0.35251 0.91376 0.58296 0.0
O71 O 0.34736 0.88707 0.58974 0.0
O72 O 0.26616 0.94259 0.56453 0.0
C73 C 0.31345 0.8984 0.51642 0.0
O74 O 0.33299 0.91696 0.52216 0.0
C75 C 0.29183 0.85555 0.59016 0.0
O76 O 0.30316 0.84876 0.56827 0.0
O77 O 0.333 0.92976 0.57502 0.0
C78 C 0.37642 0.05953 0.73288 0.0
O79 O 0.39059 0.05485 0.71222 0.0
O80 O 0.42392 0.00666 0.72086 0.0
Zn81 Zn 0.39977 0.00549 0.75172 0.0
O82 O 0.42107 0.0037 0.78635 0.0
C83 C 0.38383 0.94596 0.74637 0.0
O84 O 0.40906 0.94314 0.74002 0.0
O85 O 0.37717 0.04137 0.75162 0.0
C86 C 0.44036 0.98648 0.79191 0.0
O87 O 0.44869 0.96909 0.77377 0.0
C88 C 0.44866 0.01444 0.72221 0.0
O89 O 0.46045 0.02131 0.74501 0.0
O90 O 0.37489 0.97095 0.75073 0.0
C91 C 0.35207 0.09478 0.04829 0.0
O92 O 0.34366 0.11685 0.0616 0.0
O93 O 0.29715 0.09244 0.0878 0.0
Zn94 Zn 0.29743 0.07234 0.05291 0.0
O95 O 0.27377 0.09287 0.0257 0.0
C96 C 0.27187 0.01248 0.05028 0.0
O97 O 0.2754 0.98482 0.05446 0.0
O98 O 0.33558 0.07466 0.04177 0.0
C99 C 0.27243 0.08568 0.00165 0.0
O100 O 0.28502 0.06242 0.99447 0.0
C101 C 0.29029 0.11867 0.08905 0.0
O102 O 0.281 0.13175 0.0676 0.0
O103 O 0.29096 0.02971 0.05711 0.0
C104 C 0.74276 0.44896 0.06745 0.0
O105 O 0.74988 0.45116 0.09256 0.0
O106 O 0.78353 0.39097 0.10007 0.0
Zn107 Zn 0.78975 0.4116 0.06554 0.0
O108 O 0.79854 0.38579 0.03557 0.0
C109 C 0.8446 0.42762 0.07361 0.0
O110 O 0.8457 0.40043 0.08062 0.0
O111 O 0.75669 0.43344 0.05285 0.0
C112 C 0.81297 0.36336 0.0346 0.0
O113 O 0.8229 0.35147 0.05638 0.0
C114 C 0.77605 0.36482 0.10219 0.0
O115 O 0.77194 0.34915 0.08094 0.0
O116 O 0.82161 0.43884 0.06854 0.0
C117 C 0.87188 0.5611 0.24613 0.0
O118 O 0.87757 0.5564 0.2216 0.0
O119 O 0.92256 0.51688 0.22093 0.0
Zn120 Zn 0.90665 0.51174 0.25664 0.0
O121 O 0.93668 0.51215 0.2847 0.0
C122 C 0.89276 0.45145 0.24743 0.0
O123 O 0.91168 0.45312 0.23028 0.0
O124 O 0.88168 0.54458 0.26404 0.0
C125 C 0.95238 0.49089 0.28861 0.0
O126 O 0.94902 0.46776 0.27404 0.0
C127 C 0.94725 0.52406 0.21896 0.0
O128 O 0.96271 0.52804 0.24035 0.0
O129 O 0.88659 0.47392 0.2599 0.0
C130 C 0.8426 0.56967 0.44927 0.0
O131 O 0.84532 0.56953 0.42373 0.0
O132 O 0.8252 0.61658 0.51776 0.0
Zn133 Zn 0.80627 0.58772 0.49335 0.0
O134 O 0.77201 0.60847 0.48421 0.0
C135 C 0.78309 0.54957 0.52999 0.0
O136 O 0.78424 0.5726 0.54493 0.0
O137 O 0.82227 0.58241 0.45798 0.0
C138 C 0.74936 0.60031 0.47393 0.0
O139 O 0.74499 0.57284 0.46921 0.0
C140 C 0.82476 0.64191 0.50816 0.0
O141 O 0.8169 0.64535 0.48333 0.0
O142 O 0.79512 0.55007 0.50858 0.0
C143 C 0.72256 0.48793 0.73365 0.0
O144 O 0.71338 0.49119 0.70919 0.0
O145 O 0.65904 0.5172 0.71308 0.0
Zn146 Zn 0.68186 0.52972 0.7447 0.0
O147 O 0.66148 0.5304 0.7773 0.0
C148 C 0.70728 0.57717 0.71859 0.0
O149 O 0.70999 0.55874 0.69941 0.0
O150 O 0.71247 0.50269 0.75158 0.0
C151 C 0.6472 0.5516 0.78365 0.0
O152 O 0.64362 0.5733 0.7673 0.0
C153 C 0.63339 0.51835 0.71108 0.0
O154 O 0.62007 0.52769 0.73098 0.0
O155 O 0.6961 0.56914 0.73926 0.0
C156 C 0.04484 0.81955 0.86843 0.0
O157 O 0.04501 0.81666 0.89411 0.0
O158 O 0.99431 0.77106 0.89263 0.0
Zn159 Zn 0.98959 0.80949 0.87526 0.0
O160 O 0.98585 0.83941 0.90306 0.0
C161 C 0.93584 0.7945 0.8594 0.0
O162 O 0.9363 0.78457 0.88357 0.0
O163 O 0.02244 0.8179 0.85524 0.0
C164 C 0.96405 0.85164 0.90875 0.0
O165 O 0.94165 0.84645 0.89461 0.0
C166 C 0.9874 0.76685 0.91602 0.0
O167 O 0.97783 0.78833 0.92935 0.0
O168 O 0.95671 0.80696 0.85109 0.0
C169 C 0.97713 0.26033 0.67242 0.0
O170 O 0.97629 0.25538 0.647 0.0
O171 O 0.03365 0.22593 0.63861 0.0
Zn172 Zn 0.03425 0.26288 0.66126 0.0
O173 O 0.03315 0.29896 0.63744 0.0
C174 C 0.07552 0.24744 0.70346 0.0
O175 O 0.05572 0.23158 0.71208 0.0
O176 O 1.00031 0.26397 0.68418 0.0
C177 C 0.02888 0.32335 0.6478 0.0
O178 O 0.0254 0.32433 0.67319 0.0
C179 C 0.04617 0.22474 0.61733 0.0
O180 O 0.05877 0.24796 0.60942 0.0
O181 O 0.07088 0.26296 0.68306 0.0
C182 C 0.5408 0.32962 0.38406 0.0
O183 O 0.5426 0.33566 0.40927 0.0
O184 O 0.5165 0.26633 0.42178 0.0
Zn185 Zn 0.49727 0.29727 0.40169 0.0
O186 O 0.48668 0.32674 0.42742 0.0
C187 C 0.44942 0.26509 0.40001 0.0
O188 O 0.45437 0.2658 0.42558 0.0
O189 O 0.52146 0.31374 0.37525 0.0
C190 C 0.46409 0.33875 0.43035 0.0
O191 O 0.44353 0.33362 0.41367 0.0
C192 C 0.52504 0.26894 0.44558 0.0
O193 O 0.524 0.29411 0.45711 0.0
O194 O 0.46503 0.27833 0.38497 0.0
C195 C 0.48151 0.77945 0.18064 0.0
O196 O 0.47742 0.78205 0.15506 0.0
O197 O 0.53223 0.7284 0.1463 0.0
Zn198 Zn 0.53662 0.76815 0.16413 0.0
O199 O 0.53489 0.80038 0.13624 0.0
C200 C 0.59519 0.77706 0.1709 0.0
O201 O 0.59139 0.78484 0.14618 0.0
O202 O 0.5054 0.77365 0.18972 0.0
C203 C 0.53494 0.8267 0.14326 0.0
O204 O 0.53552 0.83261 0.1685 0.0
C205 C 0.54229 0.72259 0.12437 0.0
O206 O 0.55537 0.74298 0.11222 0.0
O207 O 0.57463 0.76928 0.18345 0.0
C208 C 0.87278 0.073 0.80448 0.0
O209 O 0.89068 0.07097 0.8243 0.0
O210 O 0.92534 0.02669 0.76153 0.0
Zn211 Zn 0.89685 0.02067 0.78698 0.0
O212 O 0.9133 0.01449 0.82274 0.0
C213 C 0.88644 0.96695 0.76154 0.0
O214 O 0.91291 0.96626 0.7613 0.0
O215 O 0.87231 0.05428 0.78639 0.0
C216 C 0.89912 0.00886 0.84217 0.0
O217 O 0.87292 0.00485 0.83829 0.0
C218 C 0.94903 0.01665 0.76496 0.0
O219 O 0.9571 0.00683 0.78823 0.0
O220 O 0.87513 0.98715 0.77353 0.0
C221 C 0.84182 0.08573 0.49074 0.0
O222 O 0.84019 0.10546 0.47222 0.0
O223 O 0.79064 0.13262 0.53605 0.0
Zn224 Zn 0.78885 0.1075 0.50389 0.0
O225 O 0.78783 0.13404 0.47219 0.0
C226 C 0.7539 0.05933 0.51719 0.0
O227 O 0.77655 0.04764 0.52633 0.0
O228 O 0.8222 0.08245 0.5057 0.0
C229 C 0.76804 0.15102 0.46793 0.0
O230 O 0.74767 0.14989 0.48348 0.0
C231 C 0.76948 0.13882 0.54796 0.0
O232 O 0.74593 0.12874 0.53903 0.0
O233 O 0.7547 0.08352 0.50548 0.0
C234 C 0.70595 0.97716 0.29754 0.0
O235 O 0.70436 0.99764 0.27971 0.0
O236 O 0.63996 0.01603 0.2931 0.0
Zn237 Zn 0.66609 0.01108 0.32415 0.0
O238 O 0.64843 0.00212 0.3582 0.0
C239 C 0.6718 0.07148 0.32785 0.0
O240 O 0.64598 0.06875 0.33226 0.0
O241 O 0.69173 0.97884 0.31757 0.0
C242 C 0.62328 0.99834 0.36103 0.0
O243 O 0.60616 0.00169 0.34073 0.0
C244 C 0.62843 0.99663 0.27899 0.0
O245 O 0.63143 0.96946 0.28562 0.0
O246 O 0.68592 0.04894 0.32567 0.0
C247 C 0.69689 0.87158 0.05209 0.0
O248 O 0.68181 0.85771 0.06851 0.0
O249 O 0.78002 0.85835 0.03183 0.0
Zn250 Zn 0.74563 0.87921 0.02272 0.0
O251 O 0.73639 0.87781 0.98388 0.0
C252 C 0.7513 0.94346 0.02592 0.0
O253 O 0.73905 0.94566 0.00254 0.0
O254 O 0.7179 0.85967 0.04414 0.0
C255 C 0.75146 0.8902 0.96776 0.0
O256 O 0.77306 0.9043 0.97682 0.0
C257 C 0.78092 0.8312 0.0345 0.0
O258 O 0.76023 0.81567 0.0254 0.0
O259 O 0.75373 0.9189 0.03672 0.0
C260 C 0.34454 0.60434 0.99331 0.0
O261 O 0.34075 0.63221 0.99117 0.0
O262 O 0.28526 0.6286 0.03128 0.0
Zn263 Zn 0.28804 0.60784 0.99728 0.0
O264 O 0.28408 0.63625 0.96738 0.0
C265 C 0.23412 0.5953 -0.00042 0.0
O266 O 0.23534 0.62356 -0.00065 0.0
O267 O 0.32425 0.58798 0.99667 0.0
C268 C 0.29522 0.63168 0.94587 0.0
O269 O 0.30845 0.60763 0.94282 0.0
C270 C 0.28874 0.65543 0.03459 0.0
O271 O 0.29736 0.67136 0.01533 0.0
O272 O 0.25577 0.58128 0.99677 0.0
C273 C 0.16377 0.44053 0.81354 0.0
O274 O 0.13892 0.43997 0.82146 0.0
O275 O 0.12673 0.50884 0.7783 0.0
Zn276 Zn 0.15218 0.50126 0.80946 0.0
O277 O 0.13113 0.50002 0.8425 0.0
C278 C 0.1651 0.56019 0.81162 0.0
O279 O 0.13941 0.56047 0.81695 0.0
O280 O 0.17375 0.46441 0.80624 0.0
C281 C 0.14191 0.48969 0.86361 0.0
O282 O 0.16707 0.48087 0.86379 0.0
C283 C 0.10577 0.49567 0.76916 0.0
O284 O 0.09819 0.47141 0.77997 0.0
O285 O 0.17672 0.53607 0.80929 0.0
C286 C 0.21901 0.44968 0.61355 0.0
O287 O 0.21474 0.45221 0.63868 0.0
O288 O 0.29024 0.41145 0.5801 0.0
Zn289 Zn 0.25701 0.43444 0.5711 0.0
O290 O 0.23601 0.41085 0.54355 0.0
C291 C 0.27897 0.47583 0.5358 0.0
O292 O 0.27712 0.45418 0.51926 0.0
O293 O 0.24082 0.43839 0.60671 0.0
C294 C 0.22254 0.41872 0.5229 0.0
O295 O 0.21841 0.44625 0.51854 0.0
C296 C 0.29837 0.39052 0.56666 0.0
O297 O 0.28674 0.38528 0.54341 0.0
O298 O 0.26965 0.47279 0.55842 0.0
C299 C 0.37317 0.5755 0.3007 0.0
O300 O 0.3782 0.56798 0.32533 0.0
O301 O 0.43166 0.52409 0.25926 0.0
Zn302 Zn 0.40772 0.52752 0.28932 0.0
O303 O 0.4302 0.53059 0.32294 0.0
C304 C 0.39311 0.46909 0.27852 0.0
O305 O 0.41493 0.4706 0.26494 0.0
O306 O 0.38364 0.56133 0.28259 0.0
C307 C 0.44587 0.5098 0.32903 0.0
O308 O 0.4467 0.48761 0.31318 0.0
C309 C 0.45726 0.52606 0.25974 0.0
O310 O 0.47074 0.53434 0.28129 0.0
O311 O 0.38552 0.49121 0.29071 0.0
C312 C 0.98592 0.03475 0.97536 0.0
N313 N 0.94371 0.02849 0.04366 0.0
C314 C 0.92875 0.0505 0.03311 0.0
C315 C 0.9006 0.04979 0.03353 0.0
C316 C 0.88767 0.02611 0.04477 0.0
C317 C 0.90374 0.00484 0.05737 0.0
C318 C 0.93188 0.00646 0.05657 0.0
Zn319 Zn 0.98326 0.02577 0.03413 0.0
C320 C 0.99743 0.96813 0.01634 0.0
N321 N 0.06398 0.02323 0.00864 0.0
C322 C 0.07664 0.04543 0.9966 0.0
C323 C 0.0779 -0.00047 0.01707 0.0
C324 C 0.10556 0.99764 0.01387 0.0
C325 C 0.11927 0.02061 0.00246 0.0
C326 C 0.10458 0.04471 0.99358 0.0
Zn327 Zn 0.02445 0.02572 0.01839 0.0
O328 O 0.97081 0.03379 0.99478 0.0
C329 C 0.01032 0.0833 0.03571 0.0
O330 O 0.01137 0.03271 0.97923 0.0
H331 H 0.0678 0.98245 0.02726 0.0
H332 H 0.93852 0.06776 0.02279 0.0
H333 H 0.06527 0.06414 0.99012 0.0
O334 O 0.98896 0.0699 0.04157 0.0
O335 O 0.02883 0.06994 0.02463 0.0
H336 H 0.94413 0.98913 0.0647 0.0
O337 O 0.03702 0.01867 0.05779 0.0
O338 O 0.99657 0.01716 0.07361 0.0
O339 O 0.01929 0.98137 0.01209 0.0
O340 O 0.97811 0.98152 0.02614 0.0
C341 C 0.02215 0.01602 0.07729 0.0
H342 H 0.88903 0.06683 0.02389 0.0
H343 H 0.8947 0.98599 0.06602 0.0
H344 H 0.11637 0.97895 0.02142 0.0
H345 H 0.11466 0.06287 0.98482 0.0
C346 C 0.3385 0.79119 0.24908 0.0
N347 N 0.26449 0.76303 0.21689 0.0
C348 C 0.26677 0.78205 0.19672 0.0
C349 C 0.26553 0.77257 0.1708 0.0
C350 C 0.26311 0.74302 0.16543 0.0
C351 C 0.25853 0.72416 0.18645 0.0
C352 C 0.25896 0.73474 0.21211 0.0
Zn353 Zn 0.27845 0.77613 0.25355 0.0
C354 C 0.30334 0.72833 0.28546 0.0
N355 N 0.31383 0.80491 0.32627 0.0
C356 C 0.32813 0.82998 0.32836 0.0
C357 C 0.30716 0.78974 0.3479 0.0
C358 C 0.31374 0.8004 0.3729 0.0
C359 C 0.32686 0.8272 0.3757 0.0
C360 C 0.33485 0.84165 0.35307 0.0
Zn361 Zn 0.29861 0.79124 0.29079 0.0
O362 O 0.31647 0.78408 0.23682 0.0
C363 C 0.2737 0.83955 0.26036 0.0
O364 O 0.3382 0.79587 0.27371 0.0
H365 H 0.29573 0.76989 0.34578 0.0
H366 H 0.27166 0.80436 0.20054 0.0
H367 H 0.33323 0.84161 0.31085 0.0
O368 O 0.26601 0.81907 0.24525 0.0
O369 O 0.28858 0.83403 0.2807 0.0
H370 H 0.25697 0.71987 0.22826 0.0
O371 O 0.25869 0.78584 0.30704 0.0
O372 O 0.24029 0.76822 0.27038 0.0
O373 O 0.30835 0.74898 0.30116 0.0
O374 O 0.29139 0.73333 0.26328 0.0
C375 C 0.23797 0.77552 0.29426 0.0
H376 H 0.26815 0.78817 0.15529 0.0
H377 H 0.25661 0.70116 0.18355 0.0
H378 H 0.30769 0.78829 0.38987 0.0
H379 H 0.34483 0.86246 0.35435 0.0
C380 C 0.54277 0.01258 0.60083 0.0
N381 N 0.56954 0.93679 0.56815 0.0
C382 C 0.58936 0.93493 0.58759 0.0
C383 C 0.59451 0.90878 0.60034 0.0
C384 C 0.57871 0.88461 0.59333 0.0
C385 C 0.55917 0.88676 0.57253 0.0
C386 C 0.55507 0.91318 0.55994 0.0
Zn387 Zn 0.5578 0.97655 0.55522 0.0
C388 C 0.49614 0.97933 0.54834 0.0
N389 N 0.53009 0.05876 0.53141 0.0
C390 C 0.54356 0.08166 0.54248 0.0
C391 C 0.51279 0.06189 0.51006 0.0
C392 C 0.51 0.08862 0.49784 0.0
C393 C 0.52548 0.11213 0.50752 0.0
C394 C 0.54167 0.10866 0.53071 0.0
Zn395 Zn 0.54109 0.01892 0.54339 0.0
O396 O 0.55373 0.98892 0.59515 0.0
C397 C 0.60235 0.01741 0.54984 0.0
O398 O 0.53626 0.03026 0.58262 0.0
H399 H 0.50232 0.04333 0.50162 0.0
H400 H 0.60029 0.95404 0.59415 0.0
H401 H 0.55718 0.07862 0.55951 0.0
O402 O 0.59888 0.99114 0.55585 0.0
O403 O 0.5818 0.03301 0.54497 0.0
H404 H 0.53945 0.91511 0.54444 0.0
O405 O 0.54511 0.00708 0.50411 0.0
O406 O 0.56182 0.96477 0.51489 0.0
O407 O 0.50095 0.00507 0.54157 0.0
O408 O 0.51587 0.96276 0.5544 0.0
C409 C 0.55474 0.98318 0.49735 0.0
H410 H 0.60964 0.90781 0.61642 0.0
H411 H 0.54676 0.86837 0.56657 0.0
H412 H 0.49674 0.09054 0.48038 0.0
H413 H 0.55409 0.1261 0.53879 0.0
C414 C 0.2967 0.19958 0.77311 0.0
N415 N 0.25496 0.22537 0.83709 0.0
C416 C 0.23928 0.20161 0.83218 0.0
C417 C 0.2341 0.18226 0.8523 0.0
C418 C 0.24538 0.1872 0.87772 0.0
C419 C 0.25946 0.21317 0.88275 0.0
C420 C 0.26406 0.23209 0.86199 0.0
Zn421 Zn 0.27105 0.24497 0.80527 0.0
C422 C 0.33087 0.2594 0.81627 0.0
N423 N 0.30788 0.27988 0.73789 0.0
C424 C 0.3092 0.26378 0.71572 0.0
C425 C 0.31767 0.30729 0.73881 0.0
C426 C 0.32768 0.32009 0.71644 0.0
C427 C 0.32866 0.30426 0.69294 0.0
C428 C 0.32017 0.2753 0.69327 0.0
Zn429 Zn 0.29078 0.26268 0.77031 0.0
O430 O 0.28323 0.2036 0.79328 0.0
C431 C 0.23113 0.24888 0.75909 0.0
O432 O 0.30275 0.22105 0.7591 0.0
H433 H 0.31708 0.31966 0.75669 0.0
H434 H 0.23252 0.19635 0.81226 0.0
H435 H 0.30131 0.24205 0.71511 0.0
O436 O 0.23315 0.24085 0.78302 0.0
O437 O 0.25229 0.25812 0.74837 0.0
H438 H 0.27663 0.25097 0.86548 0.0
O439 O 0.278 0.30406 0.78242 0.0
O440 O 0.25846 0.28643 0.81685 0.0
O441 O 0.3289 0.26726 0.7923 0.0
O442 O 0.30975 0.24988 0.82686 0.0
C443 C 0.26395 0.30785 0.80235 0.0
H444 H 0.22279 0.16272 0.84765 0.0
H445 H 0.26866 0.21778 0.90203 0.0
H446 H 0.33341 0.34257 0.71753 0.0
H447 H 0.3212 0.26164 0.6762 0.0
C448 C 0.09681 0.00014 0.54545 0.0
N449 N 0.06701 0.04104 0.47674 0.0
C450 C 0.09106 0.05535 0.47603 0.0
C451 C 0.10186 0.06196 0.45189 0.0
C452 C 0.08752 0.054 0.42851 0.0
C453 C 0.06211 0.04075 0.42992 0.0
C454 C 0.0523 0.03425 0.45432 0.0
Zn455 Zn 0.05354 0.02437 0.51055 0.0
C456 C 0.04165 0.95971 0.50183 0.0
N457 N 0.02265 0.98526 0.57754 0.0
C458 C 0.03635 0.99413 0.59989 0.0
C459 C 0.99952 0.96939 0.57833 0.0
C460 C 0.98815 0.9639 0.6024 0.0
C461 C 0.00069 0.97518 0.62559 0.0
C462 C 0.02572 0.98932 0.62418 0.0
Zn463 Zn 0.03581 0.00187 0.54379 0.0
O464 O 0.09409 0.01442 0.52418 0.0
C465 C 0.04711 0.06646 0.55275 0.0
O466 O 0.07582 0.99261 0.55709 0.0
H467 H 0.98908 0.96252 0.56023 0.0
H468 H 0.10242 0.06043 0.49413 0.0
H469 H 0.0546 0.00691 0.59885 0.0
O470 O 0.05631 0.06573 0.52985 0.0
O471 O 0.03805 0.04328 0.56243 0.0
H472 H 0.03355 0.02232 0.45524 0.0
O473 O 0.99563 0.01122 0.5304 0.0
O474 O 0.01295 0.03436 0.49766 0.0
O475 O 0.03336 0.96088 0.52503 0.0
O476 O 0.05053 0.98268 0.49148 0.0
C477 C 0.99231 0.02632 0.5097 0.0
H478 H 0.12155 0.07223 0.45148 0.0
H479 H 0.05069 0.03375 0.41236 0.0
H480 H 0.96899 0.95251 0.60269 0.0
H481 H 0.03597 0.99887 0.64134 0.0
C482 C 0.26709 0.76185 0.71671 0.0
N483 N 0.3322 0.71081 0.74332 0.0
C484 C 0.32981 0.69258 0.72247 0.0
C485 C 0.35288 0.68028 0.7125 0.0
C486 C 0.37859 0.68718 0.72393 0.0
C487 C 0.38016 0.70587 0.74561 0.0
C488 C 0.35671 0.71712 0.75518 0.0
Zn489 Zn 0.29988 0.73109 0.75775 0.0
C490 C 0.3146 0.793 0.76973 0.0
N491 N 0.23534 0.77617 0.7903 0.0
C492 C 0.21013 0.77093 0.77948 0.0
C493 C 0.23927 0.79296 0.81201 0.0
C494 C 0.21718 0.80437 0.8243 0.0
C495 C 0.19081 0.79824 0.81424 0.0
C496 C 0.1875 0.7817 0.79122 0.0
Zn497 Zn 0.26715 0.75581 0.77506 0.0
O498 O 0.2868 0.74457 0.71966 0.0
C499 C 0.25293 0.69344 0.76366 0.0
O500 O 0.25424 0.76905 0.73665 0.0
H501 H 0.25953 0.79681 0.82026 0.0
H502 H 0.31006 0.68783 0.71339 0.0
H503 H 0.2075 0.75748 0.76224 0.0
O504 O 0.27641 0.69304 0.75467 0.0
O505 O 0.2439 0.71699 0.77221 0.0
H506 H 0.35821 0.73148 0.77186 0.0
O507 O 0.28055 0.74248 0.81332 0.0
O508 O 0.31273 0.718 0.79589 0.0
O509 O 0.29083 0.79413 0.77796 0.0
O510 O 0.32316 0.76934 0.76114 0.0
C511 C 0.30044 0.72545 0.81603 0.0
H512 H 0.35057 0.66575 0.69595 0.0
H513 H 0.39937 0.71259 0.75477 0.0
H514 H 0.22069 0.81731 0.8418 0.0
H515 H 0.1676 0.77599 0.78297 0.0
C516 C 0.54411 0.97325 0.05966 0.0
N517 N 0.5653 0.05513 0.0854 0.0
C518 C 0.54605 0.04963 0.10299 0.0
C519 C 0.55243 0.05105 0.12988 0.0
C520 C 0.57884 0.05823 0.13881 0.0
C521 C 0.59753 0.06681 0.12038 0.0
C522 C 0.5903 0.06499 0.09351 0.0
Zn523 Zn 0.55857 0.03681 0.04908 0.0
C524 C 0.60805 0.00648 0.0322 0.0
N525 N 0.54298 0.98979 0.9786 0.0
C526 C 0.51965 0.97428 0.97529 0.0
C527 C 0.55871 0.99562 0.95805 0.0
C528 C 0.55008 0.98757 0.93258 0.0
C529 C 0.52495 0.97375 0.92842 0.0
C530 C 0.51014 0.9661 0.95018 0.0
Zn531 Zn 0.55096 0.00981 0.01363 0.0
O532 O 0.54877 0.99805 0.06939 0.0
C533 C 0.50125 0.03878 0.03087 0.0
O534 O 0.5438 0.97041 0.03482 0.0
H535 H 0.5771 0.00815 0.96115 0.0
H536 H 0.52646 0.04129 0.09634 0.0
H537 H 0.5075 0.96986 0.99192 0.0
O538 O 0.51779 0.04979 0.04791 0.0
O539 O 0.50968 0.02066 0.01465 0.0
H540 H 0.60541 0.06894 0.07928 0.0
O541 O 0.55783 0.04969 0.99305 0.0
O542 O 0.56794 0.07544 0.02833 0.0
O543 O 0.59214 0.9988 0.01311 0.0
O544 O 0.59936 0.02298 0.04971 0.0
C545 C 0.56426 0.07391 0.00341 0.0
H546 H 0.5374 0.04458 0.14353 0.0
H547 H 0.61816 0.07241 0.12656 0.0
H548 H 0.5619 0.99401 0.91619 0.0
H549 H 0.49071 0.95531 0.94763 0.0
C550 C 0.23889 0.23292 0.29809 0.0
N551 N 0.30342 0.25752 0.25539 0.0
C552 C 0.30653 0.22848 0.25591 0.0
C553 C 0.30997 0.21345 0.23272 0.0
C554 C 0.31085 0.22853 0.2088 0.0
C555 C 0.31121 0.25881 0.20951 0.0
C556 C 0.30716 0.27296 0.23312 0.0
Zn557 Zn 0.28294 0.27534 0.28497 0.0
C558 C 0.23398 0.30273 0.26326 0.0
N559 N 0.23464 0.30655 0.34541 0.0
C560 C 0.22826 0.29104 0.36695 0.0
C561 C 0.22897 0.33509 0.34352 0.0
C562 C 0.21836 0.34961 0.36454 0.0
C563 C 0.21294 0.33459 0.38774 0.0
C564 C 0.21705 0.30462 0.38829 0.0
Zn565 Zn 0.25669 0.28881 0.31668 0.0
O566 O 0.25796 0.23957 0.28359 0.0
C567 C 0.30512 0.25858 0.33771 0.0
O568 O 0.23336 0.24942 0.31693 0.0
H569 H 0.23396 0.34702 0.32614 0.0
H570 H 0.3035 0.2166 0.27383 0.0
H571 H 0.23285 0.26834 0.36802 0.0
O572 O 0.30858 0.25615 0.31327 0.0
O573 O 0.28473 0.27212 0.34532 0.0
H574 H 0.3046 0.29605 0.23314 0.0
O575 O 0.28038 0.32783 0.31527 0.0
O576 O 0.30718 0.31137 0.28581 0.0
O577 O 0.22895 0.30437 0.28744 0.0
O578 O 0.25698 0.29415 0.25697 0.0
C579 C 0.30046 0.33143 0.30091 0.0
H580 H 0.30945 0.19018 0.2334 0.0
H581 H 0.31272 0.27143 0.19175 0.0
H582 H 0.21599 0.37269 0.36302 0.0
H583 H 0.21259 0.29186 0.40537 0.0
C584 C 0.59623 0.5114 0.03316 0.0
N585 N 0.55755 0.54837 0.96619 0.0
C586 C 0.58065 0.56421 0.96467 0.0
C587 C 0.58919 0.57318 0.94029 0.0
C588 C 0.57348 0.56619 0.91752 0.0
C589 C 0.5489 0.55149 0.91973 0.0
C590 C 0.54137 0.54249 0.94445 0.0
Zn591 Zn 0.54834 0.53056 0.00098 0.0
C592 C 0.54013 0.46622 0.99463 0.0
N593 N 0.5273 0.49267 0.07238 0.0
C594 C 0.54042 0.5046 0.09377 0.0
C595 C 0.50707 0.47304 0.0748 0.0
C596 C 0.49789 0.46647 0.09962 0.0
C597 C 0.50937 0.48076 0.12188 0.0
C598 C 0.53168 0.4991 0.11873 0.0
Zn599 Zn 0.53634 0.50958 0.03733 0.0
O600 O 0.59044 0.52189 0.01051 0.0
C601 C 0.54497 0.57456 0.04259 0.0
O602 O 0.57733 0.50508 0.04805 0.0
H603 H 0.49709 0.46371 0.05743 0.0
H604 H 0.59306 0.5688 0.98225 0.0
H605 H 0.55657 0.52004 0.09141 0.0
O606 O 0.55225 0.57136 0.01923 0.0
O607 O 0.53663 0.55256 0.05486 0.0
H608 H 0.52322 0.52965 0.94611 0.0
O609 O 0.49514 0.51407 0.02704 0.0
O610 O 0.50614 0.53907 0.99257 0.0
O611 O 0.53603 0.46735 0.01912 0.0
O612 O 0.5447 0.48956 0.98248 0.0
C613 C 0.48807 0.52888 0.00698 0.0
H614 H 0.6084 0.58432 0.93908 0.0
H615 H 0.53663 0.54536 0.90241 0.0
H616 H 0.48104 0.45168 0.10115 0.0
H617 H 0.54106 0.51108 0.13499 0.0
C618 C 0.77236 0.27638 0.23627 0.0
N619 N 0.8329 0.22894 0.27743 0.0
C620 C 0.83539 0.21246 0.25568 0.0
C621 C 0.85946 0.19783 0.252 0.0
C622 C 0.8808 0.19964 0.27128 0.0
C623 C 0.87688 0.2156 0.29411 0.0
C624 C 0.85314 0.23078 0.2964 0.0
Zn625 Zn 0.7987 0.25103 0.28387 0.0
C626 C 0.81081 0.31311 0.29318 0.0
N627 N 0.72854 0.29733 0.3029 0.0
C628 C 0.7037 0.28894 0.29304 0.0
C629 C 0.73139 0.31912 0.32064 0.0
C630 C 0.70877 0.33263 0.32988 0.0
C631 C 0.68277 0.32286 0.32175 0.0
C632 C 0.68043 0.30121 0.30246 0.0
Zn633 Zn 0.76223 0.27496 0.29421 0.0
O634 O 0.79199 0.26024 0.24346 0.0
C635 C 0.75107 0.2124 0.28458 0.0
O636 O 0.75634 0.28527 0.25326 0.0
H637 H 0.75118 0.32534 0.32864 0.0
H638 H 0.81893 0.2111 0.24095 0.0
H639 H 0.70182 0.27173 0.27882 0.0
O640 O 0.77603 0.21294 0.28 0.0
O641 O 0.73936 0.23576 0.29006 0.0
H642 H 0.85112 0.24431 0.31338 0.0
O643 O 0.76815 0.26449 0.33489 0.0
O644 O 0.80439 0.24155 0.32447 0.0
O645 O 0.78598 0.31313 0.29829 0.0
O646 O 0.82181 0.28955 0.28735 0.0
C647 C 0.78817 0.24878 0.34169 0.0
H648 H 0.86158 0.18615 0.23388 0.0
H649 H 0.8923 0.21709 0.30989 0.0
H650 H 0.71175 0.34973 0.34415 0.0
H651 H 0.66096 0.29257 0.2957 0.0
C652 C 0.03141 0.45766 0.54761 0.0
N653 N 0.02346 0.53959 0.57877 0.0
C654 C 0.00357 0.52652 0.59209 0.0
C655 C 0.00575 0.52458 0.61946 0.0
C656 C 0.02885 0.53575 0.63315 0.0
C657 C 0.04701 0.55259 0.61909 0.0
C658 C 0.04375 0.55447 0.59175 0.0
Zn659 Zn 0.03013 0.52373 0.54218 0.0
C660 C 0.08988 0.51176 0.53838 0.0
N661 N 0.04763 0.48249 0.47079 0.0
C662 C 0.03133 0.4602 0.46266 0.0
C663 C 0.064 0.49615 0.45397 0.0
C664 C 0.06205 0.48967 0.42721 0.0
C665 C 0.04329 0.46879 0.41795 0.0
C666 C 0.02901 0.45279 0.43617 0.0
Zn667 Zn 0.04125 0.50032 0.50635 0.0
O668 O 0.02682 0.48118 0.55922 0.0
C669 C 0.98142 0.51187 0.50956 0.0
O670 O 0.03782 0.45861 0.52378 0.0
H671 H 0.07691 0.51371 0.46091 0.0
H672 H 0.9877 0.51457 0.5815 0.0
H673 H 0.01826 0.44986 0.47628 0.0
O674 O 0.98829 0.52376 0.53134 0.0
O675 O 0.99944 0.50054 0.49614 0.0
H676 H 0.05931 0.56486 0.58086 0.0
O677 O 0.04469 0.54277 0.48941 0.0
O678 O 0.03382 0.56595 0.52478 0.0
O679 O 0.0827 0.49995 0.51668 0.0
O680 O 0.07221 0.52334 0.55206 0.0
C681 C 0.04043 0.56653 0.50089 0.0
H682 H 0.99073 0.51224 0.62949 0.0
H683 H 0.06514 0.56174 0.62857 0.0
H684 H 0.07343 0.50239 0.41366 0.0
H685 H 0.01408 0.43679 0.42975 0.0
C686 C 0.80267 0.71355 0.26385 0.0
N687 N 0.76366 0.74416 0.32977 0.0
C688 C 0.7526 0.7173 0.32913 0.0
C689 C 0.74195 0.70542 0.35156 0.0
C690 C 0.7416 0.72165 0.37487 0.0
C691 C 0.75153 0.75013 0.3743 0.0
C692 C 0.76303 0.76073 0.35171 0.0
Zn693 Zn 0.78064 0.75961 0.29671 0.0
C694 C 0.84004 0.77275 0.30635 0.0
N695 N 0.81428 0.79281 0.2274 0.0
C696 C 0.83493 0.77869 0.21641 0.0
C697 C 0.80189 0.81541 0.21497 0.0
C698 C 0.80949 0.82398 0.19016 0.0
C699 C 0.82955 0.8087 0.17777 0.0
C700 C 0.84266 0.78606 0.19122 0.0
Zn701 Zn 0.79844 0.77763 0.26111 0.0
O702 O 0.79254 0.71728 0.286 0.0
C703 C 0.73846 0.76418 0.25277 0.0
O704 O 0.80619 0.73515 0.2491 0.0
H705 H 0.78521 0.82603 0.22371 0.0
H706 H 0.75255 0.70465 0.31137 0.0
H707 H 0.84463 0.76085 0.22665 0.0
O708 O 0.74265 0.75445 0.27593 0.0
O709 O 0.75825 0.77551 0.24124 0.0
H710 H 0.77175 0.78212 0.35194 0.0
O711 O 0.79011 0.82021 0.27326 0.0
O712 O 0.76934 0.802 0.30651 0.0
O713 O 0.83822 0.77926 0.28196 0.0
O714 O 0.81871 0.76499 0.31754 0.0
C715 C 0.77619 0.82381 0.29325 0.0
H716 H 0.73521 0.68324 0.35064 0.0
H717 H 0.75115 0.76403 0.39126 0.0
H718 H 0.7986 0.84122 0.18006 0.0
H719 H 0.85807 0.77372 0.18204 0.0
C720 C 0.84632 0.28082 0.75958 0.0
N721 N 0.76938 0.25443 0.72836 0.0
C722 C 0.77856 0.2662 0.70598 0.0
C723 C 0.77277 0.2531 0.68178 0.0
C724 C 0.75744 0.22757 0.68059 0.0
C725 C 0.74688 0.21676 0.70376 0.0
C726 C 0.7532 0.2306 0.72763 0.0
Zn727 Zn 0.78438 0.27076 0.76318 0.0
C728 C 0.80501 0.22566 0.79877 0.0
N729 N 0.81975 0.30506 0.83418 0.0
C730 C 0.83404 0.33007 0.83728 0.0
C731 C 0.81167 0.28987 0.85532 0.0
C732 C 0.81704 0.30002 0.88065 0.0
C733 C 0.83069 0.3263 0.88455 0.0
C734 C 0.83972 0.34121 0.86251 0.0
Zn735 Zn 0.80527 0.2899 0.79854 0.0
O736 O 0.82486 0.27121 0.74761 0.0
C737 C 0.78513 0.33493 0.76208 0.0
O738 O 0.84453 0.29129 0.78251 0.0
H739 H 0.79976 0.27043 0.8526 0.0
H740 H 0.79144 0.28511 0.70699 0.0
H741 H 0.84009 0.34191 0.8202 0.0
O742 O 0.77771 0.31266 0.74918 0.0
O743 O 0.79722 0.33215 0.78456 0.0
H744 H 0.74624 0.22157 0.74571 0.0
O745 O 0.76595 0.28821 0.8143 0.0
O746 O 0.74426 0.27024 0.77961 0.0
O747 O 0.81335 0.24759 0.8116 0.0
O748 O 0.7914 0.22903 0.77726 0.0
C749 C 0.74384 0.27947 0.80314 0.0
H750 H 0.78095 0.26234 0.66429 0.0
H751 H 0.73511 0.19701 0.70366 0.0
H752 H 0.80907 0.28814 0.89692 0.0
H753 H 0.85033 0.3616 0.86471 0.0
C754 C 0.75373 0.74091 0.73165 0.0
N755 N 0.79753 0.77548 0.67186 0.0
C756 C 0.81235 0.75126 0.67613 0.0
C757 C 0.82332 0.73686 0.65533 0.0
C758 C 0.81983 0.74775 0.62963 0.0
C759 C 0.8058 0.77389 0.62599 0.0
C760 C 0.79449 0.78728 0.64744 0.0
Zn761 Zn 0.77857 0.7907 0.70379 0.0
C762 C 0.7192 0.79748 0.69413 0.0
N763 N 0.73964 0.81636 0.77291 0.0
C764 C 0.74215 0.79848 0.79411 0.0
C765 C 0.72914 0.84321 0.7751 0.0
C766 C 0.72207 0.85348 0.79963 0.0
C767 C 0.72523 0.83561 0.82179 0.0
C768 C 0.7347 0.80757 0.81871 0.0
Zn769 Zn 0.75682 0.80317 0.73916 0.0
O770 O 0.76882 0.74791 0.71328 0.0
C771 C 0.8154 0.79228 0.75062 0.0
O772 O 0.74539 0.76026 0.74665 0.0
H773 H 0.72735 0.85717 0.7581 0.0
H774 H 0.81487 0.74229 0.69569 0.0
H775 H 0.75125 0.77757 0.79234 0.0
O776 O 0.81552 0.78856 0.72598 0.0
O777 O 0.79336 0.79787 0.76113 0.0
H778 H 0.78278 0.80667 0.6445 0.0
O779 O 0.76814 0.84547 0.73068 0.0
O780 O 0.78799 0.83354 0.69464 0.0
O781 O 0.7208 0.80766 0.71729 0.0
O782 O 0.74087 0.79213 0.68258 0.0
C783 C 0.78131 0.85261 0.71088 0.0
H784 H 0.83333 0.71663 0.65947 0.0
H785 H 0.80302 0.78366 0.60676 0.0
H786 H 0.71495 0.87533 0.80141 0.0
H787 H 0.73789 0.79341 0.8355 0.0
C788 C 0.51105 0.52379 0.4736 0.0
N789 N 0.4706 0.53941 0.54173 0.0
C790 C 0.45791 0.5602 0.52693 0.0
C791 C 0.43066 0.56611 0.53012 0.0
C792 C 0.41673 0.55092 0.54912 0.0
C793 C 0.43094 0.53136 0.56555 0.0
C794 C 0.45795 0.52568 0.56132 0.0
Zn795 Zn 0.50751 0.52495 0.53202 0.0
C796 C 0.50764 0.46201 0.52392 0.0
N797 N 0.58427 0.49522 0.50985 0.0
C798 C 0.59784 0.50907 0.49092 0.0
C799 C 0.59663 0.47507 0.52565 0.0
C800 C 0.6243 0.47012 0.52437 0.0
C801 C 0.63912 0.48563 0.50627 0.0
C802 C 0.62542 0.50438 0.48863 0.0
Zn803 Zn 0.54699 0.50948 0.5189 0.0
O804 O 0.49637 0.53051 0.4923 0.0
C805 C 0.54667 0.57244 0.5264 0.0
O806 O 0.53432 0.51315 0.47859 0.0
H807 H 0.58544 0.46417 0.54049 0.0
H808 H 0.46843 0.57106 0.51161 0.0
H809 H 0.5877 0.52519 0.47876 0.0
O810 O 0.52289 0.56673 0.53324 0.0
O811 O 0.56162 0.55224 0.51902 0.0
H812 H 0.46828 0.50904 0.57266 0.0
O813 O 0.55888 0.50621 0.55905 0.0
O814 O 0.51954 0.51965 0.57229 0.0
O815 O 0.53211 0.46732 0.51916 0.0
O816 O 0.49214 0.48239 0.52981 0.0
C817 C 0.54362 0.51157 0.57767 0.0
H818 H 0.42022 0.58121 0.51703 0.0
H819 H 0.42071 0.51882 0.58008 0.0
H820 H 0.63426 0.45551 0.53827 0.0
H821 H 0.6363 0.51701 0.47464 0.0
C822 C 0.02904 0.52725 0.08879 0.0
N823 N 0.0683 0.45817 0.05724 0.0
C824 C 0.08676 0.45986 0.07789 0.0
C825 C 0.09532 0.43497 0.09099 0.0
C826 C 0.0844 0.40838 0.08286 0.0
C827 C 0.0668 0.40703 0.06046 0.0
C828 C 0.05909 0.43241 0.04773 0.0
Zn829 Zn 0.05018 0.49453 0.04408 0.0
C830 C 0.98998 0.48499 0.03625 0.0
N831 N 0.00961 0.56987 0.01868 0.0
C832 C 0.01567 0.5944 0.03232 0.0
C833 C 0.99357 0.57019 0.99622 0.0
C834 C 0.98413 0.59624 0.98587 0.0
C835 C 0.99113 0.62197 -0.00103 0.0
C836 C 0.00644 0.62084 0.02284 0.0
Zn837 Zn 0.02767 0.53307 0.03093 0.0
O838 O 0.04392 0.50612 0.08358 0.0
C839 C 0.08794 0.5424 0.03878 0.0
O840 O 0.01957 0.543 0.07022 0.0
H841 H 0.98898 0.55036 0.98581 0.0
H842 H 0.09359 0.48063 0.08522 0.0
H843 H 0.02865 0.59361 0.05001 0.0
O844 O 0.08751 0.51594 0.04486 0.0
O845 O 0.06575 0.55528 0.03353 0.0
H846 H 0.04451 0.43165 0.03121 0.0
O847 O 0.03572 0.5224 0.99145 0.0
O848 O 0.05672 0.48326 0.00486 0.0
O849 O 0.99013 0.51099 0.02853 0.0
O850 O 0.01222 0.47302 0.04305 0.0
C851 C 0.04918 0.50011 0.98627 0.0
H852 H 0.10879 0.43668 0.10835 0.0
H853 H 0.05818 0.38671 0.05366 0.0
H854 H 0.97224 0.59639 0.96743 0.0
H855 H 0.01255 0.6403 0.03326 0.0
H856 H 0.06993 0.18519 0.09285 0.0
H857 H 0.01018 0.16458 0.14902 0.0
H858 H 0.98637 0.13338 0.11712 0.0
H859 H 0.98613 0.10711 0.07618 0.0
H860 H 0.04893 0.1222 0.02187 0.0
H861 H 0.06736 0.16133 0.04959 0.0
C862 C 0.05154 0.17406 0.09788 0.0
C863 C 0.04202 0.17664 0.12324 0.0
C864 C 0.03842 0.1554 0.07973 0.0
C865 C 0.01815 0.16233 0.1297 0.0
C866 C 0.00442 0.14469 0.11146 0.0
C867 C 0.00338 0.11949 0.06997 0.0
C868 C 0.01635 0.11169 0.04723 0.0
C869 C 0.01485 0.14039 0.08676 0.0
C870 C 0.03872 0.12783 0.03945 0.0
C871 C 0.04942 0.14994 0.05541 0.0
H872 H 0.11718 0.75863 0.33057 0.0
H873 H 0.15485 0.78965 0.40348 0.0
H874 H 0.1982 0.79328 0.38327 0.0
H875 H 0.22611 0.78797 0.34502 0.0
H876 H 0.18935 0.75667 0.27192 0.0
H877 H 0.14559 0.75285 0.29197 0.0
C878 C 0.13485 0.7662 0.34204 0.0
C879 C 0.1324 0.77383 0.36866 0.0
C880 C 0.16019 0.76819 0.33023 0.0
C881 C 0.15578 0.78353 0.38304 0.0
C882 C 0.18078 0.78566 0.37148 0.0
C883 C 0.20857 0.78026 0.33341 0.0
C884 C 0.21129 0.77265 0.30688 0.0
C885 C 0.18331 0.77807 0.3451 0.0
C886 C 0.18811 0.76269 0.29234 0.0
C887 C 0.16294 0.76052 0.30383 0.0
H888 H 0.56873 0.77096 0.6597 0.0
H889 H 0.65161 0.76265 0.63885 0.0
H890 H 0.64998 0.81012 0.61791 0.0
H891 H 0.62358 0.85225 0.60234 0.0
H892 H 0.53927 0.85752 0.61904 0.0
H893 H 0.5426 0.8129 0.64454 0.0
C894 C 0.58657 0.77985 0.65102 0.0
C895 C 0.61038 0.76368 0.65109 0.0
C896 C 0.58498 0.80635 0.63783 0.0
C897 C 0.63316 0.77497 0.63921 0.0
C898 C 0.63217 0.80197 0.6271 0.0
C899 C 0.60607 0.84358 0.61174 0.0
C900 C 0.58121 0.85784 0.60884 0.0
C901 C 0.60798 0.81755 0.62575 0.0
C902 C 0.55852 0.84657 0.62087 0.0
C903 C 0.56045 0.8212 0.63552 0.0
H904 H 0.43379 0.25178 0.89551 0.0
H905 H 0.47499 0.27366 0.82541 0.0
H906 H 0.43148 0.27581 0.80038 0.0
H907 H 0.38142 0.27105 0.79823 0.0
H908 H 0.34087 0.24857 0.86861 0.0
H909 H 0.38425 0.24727 0.89348 0.0
C910 C 0.43338 0.25703 0.87474 0.0
C911 C 0.4579 0.26251 0.86248 0.0
C912 C 0.40823 0.25821 0.86042 0.0
C913 C 0.45664 0.26928 0.83549 0.0
C914 C 0.43167 0.27055 0.82113 0.0
C915 C 0.38202 0.26603 0.81905 0.0
C916 C 0.35763 0.26 0.83142 0.0
C917 C 0.40728 0.26505 0.83336 0.0
C918 C 0.35908 0.25335 0.85843 0.0
C919 C 0.38398 0.25255 0.87274 0.0
H920 H 0.03692 0.83278 0.45493 0.0
H921 H 0.06561 0.87836 0.38766 0.0
H922 H 0.06489 0.92354 0.41163 0.0
H923 H 0.0562 0.95063 0.45153 0.0
H924 H 0.027 0.90597 0.51899 0.0
H925 H 0.02778 0.86034 0.49519 0.0
C926 C 0.04307 0.85258 0.44554 0.0
C927 C 0.05133 0.85194 0.41942 0.0
C928 C 0.04247 0.87886 0.45948 0.0
C929 C 0.0591 0.87798 0.40765 0.0
C930 C 0.05872 0.90397 0.42137 0.0
C931 C 0.04996 0.93096 0.46109 0.0
C932 C 0.04157 0.93192 0.48711 0.0
C933 C 0.05041 0.90473 0.44726 0.0
C934 C 0.03353 0.90605 0.49901 0.0
C935 C 0.03401 0.87985 0.48539 0.0
H936 H 0.48116 0.66216 0.65933 0.0
H937 H 0.5191 0.66556 0.73734 0.0
H938 H 0.47476 0.66822 0.75628 0.0
H939 H 0.4259 0.67326 0.75041 0.0
H940 H 0.38844 0.67735 0.67204 0.0
H941 H 0.43169 0.66669 0.65354 0.0
C942 C 0.4796 0.66311 0.68048 0.0
C943 C 0.50317 0.66371 0.697 0.0
C944 C 0.45415 0.66583 0.69112 0.0
C945 C 0.50111 0.66527 0.72433 0.0
C946 C 0.47582 0.66674 0.73512 0.0
C947 C 0.42711 0.6721 0.72925 0.0
C948 C 0.40387 0.67663 0.71272 0.0
C949 C 0.45229 0.66772 0.71866 0.0
C950 C 0.40581 0.67381 0.68537 0.0
C951 C 0.43066 0.66804 0.6747 0.0
H952 H 0.55074 0.17399 0.91871 0.0
H953 H 0.57922 0.22509 0.98518 0.0
H954 H 0.58321 0.18187 0.01239 0.0
H955 H 0.57789 0.12935 0.0178 0.0
H956 H 0.55104 0.07804 0.95082 0.0
H957 H 0.54747 0.12118 0.92359 0.0
C958 C 0.55776 0.17567 0.93916 0.0
C959 C 0.56449 0.2029 0.94983 0.0
C960 C 0.56048 0.15053 0.95471 0.0
C961 C 0.57387 0.20451 0.97635 0.0
C962 C 0.57618 0.17974 0.99199 0.0
C963 C 0.57149 0.12754 0.9972 0.0
C964 C 0.56474 0.10029 0.98655 0.0
C965 C 0.56951 0.15259 0.98144 0.0
C966 C 0.55647 0.09857 0.95971 0.0
C967 C 0.55428 0.12333 0.94405 0.0
H968 H 0.12493 0.25326 0.22738 0.0
H969 H 0.17559 0.20036 0.18092 0.0
H970 H 0.21416 0.23254 0.19162 0.0
H971 H 0.23374 0.27186 0.21836 0.0
H972 H 0.18258 0.32278 0.26611 0.0
H973 H 0.14294 0.29635 0.24857 0.0
C974 C 0.14442 0.24848 0.21965 0.0
C975 C 0.14773 0.22385 0.20412 0.0
C976 C 0.16595 0.26728 0.22526 0.0
C977 C 0.17281 0.21879 0.19345 0.0
C978 C 0.19466 0.23736 0.19927 0.0
C979 C 0.21382 0.27799 0.22424 0.0
C980 C 0.2111 0.2987 0.24412 0.0
C981 C 0.1915 0.26133 0.21559 0.0
C982 C 0.18516 0.30669 0.25109 0.0
C983 C 0.16261 0.29117 0.24152 0.0
H984 H 0.06301 0.00814 0.19677 0.0
H985 H 0.13811 0.03062 0.16179 0.0
H986 H 0.11553 0.03013 0.11832 0.0
H987 H 0.07494 0.02411 0.09035 0.0
H988 H 0.9988 0.00372 0.12406 0.0
H989 H 0.02142 0.00245 0.16804 0.0
C990 C 0.07439 0.01287 0.1796 0.0
C991 C 0.1022 0.01941 0.18253 0.0
C992 C 0.06117 0.01287 0.15451 0.0
C993 C 0.11667 0.02566 0.16014 0.0
C994 C 0.10381 0.02531 0.13523 0.0
C995 C 0.06319 0.01917 0.10723 0.0
C996 C 0.03524 0.01384 0.10392 0.0
C997 C 0.07613 0.01902 0.13223 0.0
C998 C 0.02037 0.00782 0.1261 0.0
C999 C 0.03328 0.00714 0.15121 0.0
H1000 H 0.35203 0.89714 0.48027 0.0
H1001 H 0.27223 0.86506 0.49588 0.0
H1002 H 0.26986 0.83983 0.45399 0.0
H1003 H 0.28969 0.82796 0.41269 0.0
H1004 H 0.36986 0.8585 0.39691 0.0
H1005 H 0.37269 0.88365 0.43914 0.0
C1006 C 0.33412 0.88464 0.47448 0.0
C1007 C 0.31231 0.88307 0.4911 0.0
C1008 C 0.33292 0.87 0.45041 0.0
C1009 C 0.28931 0.86663 0.48345 0.0
C1010 C 0.28791 0.8522 0.4595 0.0
C1011 C 0.30804 0.83962 0.41866 0.0
C1012 C 0.32962 0.84117 0.40179 0.0
C1013 C 0.30956 0.85379 0.44285 0.0
C1014 C 0.35291 0.85711 0.40952 0.0
C1015 C 0.35456 0.87141 0.43365 0.0
H1016 H 0.50209 0.00495 0.71597 0.0
H1017 H 0.42821 0.03068 0.67422 0.0
H1018 H 0.4522 0.03618 0.63376 0.0
H1019 H 0.49333 0.03132 0.60981 0.0
H1020 H 0.56605 -0.00061 0.64932 0.0
H1021 H 0.54363 0.99906 0.69133 0.0
C1022 C 0.49138 0.01189 0.698 0.0
C1023 C 0.46349 0.01746 0.69798 0.0
C1024 C 0.50515 0.01408 0.67457 0.0
C1025 C 0.44965 0.0261 0.67459 0.0
C1026 C 0.46337 0.02938 0.65152 0.0
C1027 C 0.50446 0.02493 0.62776 0.0
C1028 C 0.53144 0.01608 0.62677 0.0
C1029 C 0.49102 0.02324 0.65125 0.0
C1030 C 0.54538 0.00676 0.64986 0.0
C1031 C 0.53251 0.00638 0.67374 0.0
H1032 H 0.26757 0.07811 0.94873 0.0
H1033 H 0.25149 0.13903 0.00973 0.0
H1034 H 0.23934 0.17534 0.97664 0.0
H1035 H 0.23773 0.19132 0.9304 0.0
H1036 H 0.25494 0.13038 0.86977 0.0
H1037 H 0.26172 0.09264 0.90258 0.0
C1038 C 0.26105 0.09919 0.95481 0.0
C1039 C 0.26085 0.10591 0.98167 0.0
C1040 C 0.25438 0.12012 0.93569 0.0
C1041 C 0.25205 0.13328 0.98918 0.0
C1042 C 0.24518 0.15415 0.97025 0.0
C1043 C 0.24272 0.16971 0.9244 0.0
C1044 C 0.24585 0.16378 0.89767 0.0
C1045 C 0.24702 0.14807 0.94346 0.0
C1046 C 0.25203 0.13555 0.89016 0.0
C1047 C 0.25617 0.11394 0.90895 0.0
H1048 H 0.14944 0.03454 0.32582 0.0
H1049 H 0.07644 0.07106 0.29059 0.0
H1050 H 0.05928 0.07894 0.3343 0.0
H1051 H 0.06451 0.07339 0.38238 0.0
H1052 H 0.13819 0.03781 0.41716 0.0
H1053 H 0.15611 0.03245 0.37368 0.0
C1054 C 0.12969 0.04404 0.32774 0.0
C1055 C 0.11389 0.05166 0.30518 0.0
C1056 C 0.12036 0.0491 0.35277 0.0
C1057 C 0.08873 0.06474 0.30781 0.0
C1058 C 0.07901 0.06933 0.33272 0.0
C1059 C 0.08461 0.06479 0.38037 0.0
C1060 C 0.1 0.05591 0.40283 0.0
C1061 C 0.09459 0.06139 0.35532 0.0
C1062 C 0.12612 0.04509 0.40014 0.0
C1063 C 0.13622 0.04168 0.37529 0.0
H1064 H 0.25728 0.85767 0.63003 0.0
H1065 H 0.31466 0.80258 0.59415 0.0
H1066 H 0.30916 0.76655 0.62843 0.0
H1067 H 0.29152 0.75286 0.67083 0.0
H1068 H 0.23384 0.80768 0.7067 0.0
H1069 H 0.23543 0.84114 0.66983 0.0
C1070 C 0.26843 0.83768 0.62966 0.0
C1071 C 0.28667 0.833 0.60984 0.0
C1072 C 0.26502 0.8169 0.64934 0.0
C1073 C 0.30061 0.8068 0.60929 0.0
C1074 C 0.29749 0.78616 0.62889 0.0
C1075 C 0.27884 0.7718 0.67034 0.0
C1076 C 0.26287 0.77788 0.69169 0.0
C1077 C 0.28018 0.79125 0.6493 0.0
C1078 C 0.24641 0.80244 0.69059 0.0
C1079 C 0.24748 0.82178 0.66961 0.0
H1080 H 0.48834 0.96253 0.80836 0.0
H1081 H 0.41981 0.00841 0.83603 0.0
H1082 H 0.43939 0.00675 0.88083 0.0
H1083 H 0.47623 0.99342 0.91198 0.0
H1084 H 0.54616 0.95002 0.88484 0.0
H1085 H 0.52578 0.94942 0.83988 0.0
C1086 C 0.4777 0.97208 0.82422 0.0
C1087 C 0.45267 0.98557 0.81888 0.0
C1088 C 0.48927 0.97142 0.84997 0.0
C1089 C 0.43918 0.99805 0.83958 0.0
C1090 C 0.4503 0.99703 0.86523 0.0
C1091 C 0.4868 0.98343 0.89626 0.0
C1092 C 0.51239 0.97138 0.9016 0.0
C1093 C 0.47531 0.98385 0.87061 0.0
C1094 C 0.52631 0.95923 0.88106 0.0
C1095 C 0.5147 0.95896 0.85544 0.0
H1096 H 0.27538 0.17342 0.09919 0.0
H1097 H 0.31927 0.10144 0.13331 0.0
H1098 H 0.3317 0.13 0.17226 0.0
H1099 H 0.3301 0.1753 0.19659 0.0
H1100 H 0.283 0.24584 0.16373 0.0
H1101 H 0.273 0.21835 0.12393 0.0
C1102 C 0.28759 0.16392 0.11518 0.0
C1103 C 0.29629 0.13532 0.11335 0.0
C1104 C 0.29459 0.1804 0.13757 0.0
C1105 C 0.3121 0.12336 0.13427 0.0
C1106 C 0.31938 0.13973 0.1565 0.0
C1107 C 0.31752 0.18469 0.18084 0.0
C1108 C 0.30753 0.21279 0.18336 0.0
C1109 C 0.31074 0.16828 0.15835 0.0
C1110 C 0.29167 0.22463 0.16234 0.0
C1111 C 0.28551 0.20872 0.13961 0.0
H1112 H 0.24032 0.9846 0.01414 0.0
H1113 H 0.24511 0.06215 0.06039 0.0
H1114 H 0.1988 0.07445 0.04542 0.0
H1115 H 0.15493 0.05908 0.02446 0.0
H1116 H 0.14987 0.97957 0.98105 0.0
H1117 H 0.19837 0.97211 0.9893 0.0
C1118 C 0.23133 0.00443 0.02058 0.0
C1119 C 0.24596 0.02251 0.03824 0.0
C1120 C 0.20459 0.01082 0.01251 0.0
C1121 C 0.23426 0.04815 0.04646 0.0
C1122 C 0.20774 0.05502 0.0381 0.0
C1123 C 0.16471 0.04062 0.01619 0.0
C1124 C 0.14905 0.01982 0.00225 0.0
C1125 C 0.19242 0.03602 0.02181 0.0
C1126 C 0.16168 0.99574 0.99188 0.0
C1127 C 0.18931 0.99143 0.99671 0.0
H1128 H 0.70407 0.47568 0.09417 0.0
H1129 H 0.72578 0.45386 0.0157 0.0
H1130 H 0.68348 0.47425 0.99761 0.0
H1131 H 0.63858 0.4951 0.00443 0.0
H1132 H 0.61635 0.51396 0.08332 0.0
H1133 H 0.66059 0.49837 0.10078 0.0
C1134 C 0.6997 0.47561 0.07309 0.0
C1135 C 0.718 0.46309 0.05638 0.0
C1136 C 0.67514 0.48689 0.06285 0.0
C1137 C 0.71195 0.46317 0.02908 0.0
C1138 C 0.68776 0.47487 0.01868 0.0
C1139 C 0.6437 0.49624 0.02535 0.0
C1140 C 0.62431 0.5056 0.04257 0.0
C1141 C 0.66897 0.48636 0.03541 0.0
C1142 C 0.63097 0.50667 0.0697 0.0
C1143 C 0.65623 0.49771 0.07973 0.0
H1144 H 0.85234 0.44079 0.28069 0.0
H1145 H 0.90592 0.39856 0.22893 0.0
H1146 H 0.88699 0.35187 0.24053 0.0
H1147 H 0.85443 0.32309 0.26434 0.0
H1148 H 0.79923 0.36524 0.3144 0.0
H1149 H 0.81993 0.41186 0.30486 0.0
C1150 C 0.85987 0.42139 0.27192 0.0
C1151 C 0.88049 0.42325 0.25389 0.0
C1152 C 0.8488 0.39456 0.27858 0.0
C1153 C 0.88999 0.39784 0.24274 0.0
C1154 C 0.87925 0.37108 0.24945 0.0
C1155 C 0.84723 0.34241 0.27353 0.0
C1156 C 0.8255 0.34068 0.29026 0.0
C1157 C 0.85864 0.36918 0.26731 0.0
C1158 C 0.81604 0.366 0.30158 0.0
C1159 C 0.82777 0.39266 0.29601 0.0
H1160 H 0.87772 0.52873 0.43615 0.0
H1161 H 0.85485 0.58013 0.50147 0.0
H1162 H 0.89443 0.56383 0.52762 0.0
H1163 H 0.93874 0.53988 0.52952 0.0
H1164 H 0.96143 0.48885 0.46346 0.0
H1165 H 0.91865 0.49977 0.44017 0.0
C1166 C 0.88119 0.53609 0.45624 0.0
C1167 C 0.86358 0.55609 0.46675 0.0
C1168 C 0.90415 0.5268 0.47095 0.0
C1169 C 0.86807 0.56493 0.49292 0.0
C1170 C 0.89086 0.55568 0.50782 0.0
C1171 C 0.93411 0.53071 0.51025 0.0
C1172 C 0.95349 0.51404 0.49809 0.0
C1173 C 0.90952 0.53736 0.49671 0.0
C1174 C 0.94704 0.50207 0.47319 0.0
C1175 C 0.92259 0.50835 0.45977 0.0
H1176 H 0.18443 0.11085 0.2828 0.0
H1177 H 0.19833 0.13155 0.20189 0.0
H1178 H 0.21596 0.17885 0.21515 0.0
H1179 H 0.2285 0.21339 0.2495 0.0
H1180 H 0.21429 0.19419 0.33055 0.0
H1181 H 0.19446 0.14734 0.31736 0.0
C1182 C 0.19131 0.1258 0.26812 0.0
C1183 C 0.19055 0.1177 0.24144 0.0
C1184 C 0.20075 0.15322 0.27583 0.0
C1185 C 0.19889 0.13734 0.2225 0.0
C1186 C 0.20881 0.16438 0.23005 0.0
C1187 C 0.22089 0.19902 0.26431 0.0
C1188 C 0.2231 0.20687 0.29099 0.0
C1189 C 0.20995 0.17241 0.25662 0.0
C1190 C 0.21273 0.18847 0.30993 0.0
C1191 C 0.20166 0.16169 0.30238 0.0
H1192 H 0.37051 0.96113 0.55736 0.0
H1193 H 0.39835 0.88729 0.60227 0.0
H1194 H 0.44521 0.90023 0.59456 0.0
H1195 H 0.47835 0.93217 0.57451 0.0
H1196 H 0.45027 0.00593 0.5296 0.0
H1197 H 0.40352 0.9931 0.53757 0.0
C1198 C 0.38682 0.94802 0.56572 0.0
C1199 C 0.38089 0.92333 0.58046 0.0
C1200 C 0.41372 0.95533 0.56089 0.0
C1201 C 0.40231 0.90645 0.59089 0.0
C1202 C 0.42914 0.91375 0.58639 0.0
C1203 C 0.46199 0.94525 0.56624 0.0
C1204 C 0.46783 0.96987 0.55135 0.0
C1205 C 0.43508 0.93799 0.5712 0.0
C1206 C 0.44637 0.98681 0.54107 0.0
C1207 C 0.4196 0.97957 0.54571 0.0
H1208 H 0.85471 0.60466 0.21392 0.0
H1209 H 0.85308 0.57472 0.29412 0.0
H1210 H 0.82938 0.61824 0.30627 0.0
H1211 H 0.81171 0.66626 0.29471 0.0
H1212 H 0.81537 0.6968 0.21485 0.0
H1213 H 0.8354 0.65152 0.20199 0.0
C1214 C 0.84898 0.6075 0.23401 0.0
C1215 C 0.85581 0.5865 0.25308 0.0
C1216 C 0.83574 0.63277 0.24097 0.0
C1217 C 0.84822 0.5906 0.27905 0.0
C1218 C 0.83465 0.6155 0.28603 0.0
C1219 C 0.81657 0.66284 0.27443 0.0
C1220 C 0.81211 0.68491 0.2558 0.0
C1221 C 0.82867 0.63693 0.26725 0.0
C1222 C 0.8187 0.68022 0.22962 0.0
C1223 C 0.8302 0.65434 0.22224 0.0
H1224 H 0.73581 0.44262 0.7036 0.0
H1225 H 0.75013 0.47963 0.78072 0.0
H1226 H 0.77393 0.43632 0.79562 0.0
H1227 H 0.7856 0.38584 0.78826 0.0
H1228 H 0.76878 0.34811 0.71176 0.0
H1229 H 0.75127 0.39385 0.69509 0.0
C1230 C 0.74458 0.44144 0.72352 0.0
C1231 C 0.74092 0.46411 0.74111 0.0
C1232 C 0.75753 0.41619 0.73218 0.0
C1233 C 0.75243 0.46228 0.76686 0.0
C1234 C 0.76598 0.43751 0.77543 0.0
C1235 C 0.7785 0.38778 0.76785 0.0
C1236 C 0.77812 0.36357 0.75139 0.0
C1237 C 0.76785 0.41397 0.75851 0.0
C1238 C 0.76893 0.36637 0.72495 0.0
C1239 C 0.75892 0.39252 0.71536 0.0
H1240 H 0.00523 0.86128 0.94461 0.0
H1241 H 0.92279 0.88551 0.9242 0.0
H1242 H 0.92433 0.92037 0.96009 0.0
H1243 H 0.95096 0.94787 0.99346 0.0
H1244 H 0.0344 0.926 0.01118 0.0
H1245 H 0.03036 0.88551 0.98066 0.0
C1246 C 0.98751 0.87403 0.94808 0.0
C1247 C 0.9641 0.87122 0.93148 0.0
C1248 C 0.98865 0.8942 0.96844 0.0
C1249 C 0.94118 0.88755 0.93652 0.0
C1250 C 0.94201 0.90742 0.95707 0.0
C1251 C 0.96795 0.9336 0.99128 0.0
C1252 C 0.99291 0.93968 0.00448 0.0
C1253 C 0.96586 0.9114 0.97272 0.0
C1254 C 0.01498 0.92151 0.0012 0.0
C1255 C 0.01275 0.89861 0.98359 0.0
H1256 H 0.96788 0.27991 0.72271 0.0
H1257 H 0.92713 0.2442 0.65316 0.0
H1258 H 0.88388 0.24741 0.6735 0.0
H1259 H 0.85687 0.26061 0.71069 0.0
H1260 H 0.89653 0.29697 0.78039 0.0
H1261 H 0.94035 0.29334 0.76045 0.0
C1262 C 0.94957 0.2727 0.71207 0.0
C1263 C 0.95109 0.26179 0.6863 0.0
C1264 C 0.92427 0.27484 0.7239 0.0
C1265 C 0.9269 0.25277 0.6729 0.0
C1266 C 0.90196 0.25459 0.68455 0.0
C1267 C 0.87505 0.26781 0.72159 0.0
C1268 C 0.87313 0.2791 0.74711 0.0
C1269 C 0.90031 0.26569 0.70997 0.0
C1270 C 0.89715 0.28824 0.76074 0.0
C1271 C 0.92234 0.28612 0.74933 0.0
H1272 H 0.5292 0.21483 0.4272 0.0
H1273 H 0.53213 0.26411 0.49905 0.0
H1274 H 0.53266 0.21963 0.52477 0.0
H1275 H 0.52831 0.16696 0.52654 0.0
H1276 H 0.52599 0.11822 0.45433 0.0
H1277 H 0.52821 0.16254 0.42901 0.0
C1278 C 0.53027 0.21591 0.4485 0.0
C1279 C 0.53034 0.24269 0.4612 0.0
C1280 C 0.52997 0.19041 0.46307 0.0
C1281 C 0.53203 0.24372 0.4888 0.0
C1282 C 0.53209 0.21831 0.50351 0.0
C1283 C 0.52857 0.16601 0.50529 0.0
C1284 C 0.52652 0.13931 0.49237 0.0
C1285 C 0.53039 0.19157 0.49081 0.0
C1286 C 0.52673 0.13849 0.46478 0.0
C1287 C 0.52836 0.1638 0.45027 0.0
H1288 H 0.6133 0.7545 0.21868 0.0
H1289 H 0.64075 0.79951 0.15063 0.0
H1290 H 0.68704 0.7991 0.16921 0.0
H1291 H 0.72031 0.78616 0.20491 0.0
H1292 H 0.69306 0.74069 0.2728 0.0
H1293 H 0.64673 0.74101 0.2542 0.0
C1294 C 0.62938 0.76431 0.20795 0.0
C1295 C 0.62328 0.77706 0.18323 0.0
C1296 C 0.65629 0.76383 0.21871 0.0
C1297 C 0.6446 0.78948 0.16965 0.0
C1298 C 0.67124 0.78926 0.18027 0.0
C1299 C 0.70429 0.77618 0.21559 0.0
C1300 C 0.71044 0.7634 0.24028 0.0
C1301 C 0.67741 0.77646 0.20477 0.0
C1302 C 0.68918 0.75069 0.25377 0.0
C1303 C 0.66252 0.7509 0.24315 0.0
H1304 H 0.03017 0.17021 0.63115 0.0
H1305 H 0.06564 0.21785 0.56852 0.0
H1306 H 0.06941 0.17371 0.5432 0.0
H1307 H 0.06285 0.12113 0.53858 0.0
H1308 H 0.02802 0.07353 0.60164 0.0
H1309 H 0.024 0.11769 0.62672 0.0
C1310 C 0.03863 0.17098 0.61192 0.0
C1311 C 0.04753 0.19752 0.60186 0.0
C1312 C 0.04101 0.14532 0.59741 0.0
C1313 C 0.0586 0.19788 0.57691 0.0
C1314 C 0.0608 0.17255 0.56233 0.0
C1315 C 0.05446 0.12039 0.55783 0.0
C1316 C 0.04579 0.09382 0.56804 0.0
C1317 C 0.05216 0.14607 0.57237 0.0
C1318 C 0.03493 0.09349 0.59311 0.0
C1319 C 0.03255 0.11884 0.60756 0.0
H1320 H 0.59169 0.34423 0.40051 0.0
H1321 H 0.54131 0.32827 0.33042 0.0
H1322 H 0.58117 0.32949 0.30391 0.0
H1323 H 0.63059 0.32884 0.30174 0.0
H1324 H 0.68035 0.33814 0.37352 0.0
H1325 H 0.64056 0.34689 0.3979 0.0
C1326 C 0.58933 0.34162 0.37936 0.0
C1327 C 0.5637 0.33586 0.36746 0.0
C1328 C 0.61234 0.34108 0.36448 0.0
C1329 C 0.56095 0.33247 0.34004 0.0
C1330 C 0.58372 0.33308 0.3249 0.0
C1331 C 0.63281 0.33278 0.3227 0.0
C1332 C 0.65865 0.33253 0.33559 0.0
C1333 C 0.60961 0.33624 0.33709 0.0
C1334 C 0.66098 0.33857 0.36272 0.0
C1335 C 0.6381 0.34325 0.3769 0.0
H1336 H 0.53389 0.8842 0.15275 0.0
H1337 H 0.53686 0.82309 0.08939 0.0
H1338 H 0.53891 0.86269 0.05765 0.0
H1339 H 0.54121 0.91519 0.04801 0.0
H1340 H 0.53861 0.97527 0.1124 0.0
H1341 H 0.53501 0.9357 0.1433 0.0
C1342 C 0.5349 0.87941 0.132 0.0
C1343 C 0.53527 0.85057 0.12359 0.0
C1344 C 0.53617 0.90226 0.1139 0.0
C1345 C 0.53654 0.84501 0.09653 0.0
C1346 C 0.53774 0.8677 0.07833 0.0
C1347 C 0.53964 0.9196 0.06877 0.0
C1348 C 0.54022 0.94835 0.0777 0.0
C1349 C 0.53773 0.89649 0.08677 0.0
C1350 C 0.53828 0.95351 0.10478 0.0
C1351 C 0.53624 0.93083 0.1226 0.0
H1352 H 0.93152 0.79851 0.80634 0.0
H1353 H 0.88468 0.7849 0.87462 0.0
H1354 H 0.84322 0.78229 0.8467 0.0
H1355 H 0.82029 0.78517 0.80319 0.0
H1356 H 0.86701 0.79726 0.73462 0.0
H1357 H 0.9087 0.79894 0.76243 0.0
C1358 C 0.91221 0.79499 0.81507 0.0
C1359 C 0.91105 0.79212 0.84244 0.0
C1360 C 0.88855 0.79317 0.79891 0.0
C1361 C 0.88603 0.78716 0.85355 0.0
C1362 C 0.86234 0.78572 0.83764 0.0
C1363 C 0.83962 0.78808 0.79433 0.0
C1364 C 0.84066 0.79126 0.76699 0.0
C1365 C 0.86338 0.78886 0.81034 0.0
C1366 C 0.86578 0.79469 0.75568 0.0
C1367 C 0.88957 0.79578 0.77154 0.0
H1368 H 0.95115 0.02288 0.85566 0.0
H1369 H 0.87484 0.0014 0.88874 0.0
H1370 H 0.89482 0.00967 0.93292 0.0
H1371 H 0.93368 0.02292 0.9618 0.0
H1372 H 0.0103 0.04337 0.92893 0.0
H1373 H 0.99009 0.03616 0.8846 0.0
C1374 C 0.93886 0.01984 0.87251 0.0
C1375 C 0.91154 0.0115 0.86894 0.0
C1376 C 0.95037 0.02487 0.89772 0.0
C1377 C 0.89593 0.00772 0.89098 0.0
C1378 C 0.90729 0.0126 0.9162 0.0
C1379 C 0.94593 0.0262 0.94495 0.0
C1380 C 0.9734 0.03388 0.94857 0.0
C1381 C 0.93441 0.02135 0.91973 0.0
C1382 C 0.98907 0.03762 0.92658 0.0
C1383 C 0.97758 0.03333 0.9013 0.0
H1384 H 0.72912 0.15177 0.58015 0.0
H1385 H 0.81414 0.16642 0.56937 0.0
H1386 H 0.81751 0.19575 0.60905 0.0
H1387 H 0.7967 0.21624 0.64722 0.0
H1388 H 0.71195 0.20145 0.65865 0.0
H1389 H 0.70811 0.17287 0.61828 0.0
C1390 C 0.74838 0.16145 0.58642 0.0
C1391 C 0.77134 0.1569 0.5718 0.0
C1392 C 0.75023 0.17815 0.60936 0.0
C1393 C 0.79615 0.16952 0.58027 0.0
C1394 C 0.79811 0.18631 0.60295 0.0
C1395 C 0.77729 0.20712 0.64067 0.0
C1396 C 0.75458 0.21112 0.65573 0.0
C1397 C 0.77531 0.19068 0.61765 0.0
C1398 C 0.72972 0.19857 0.64739 0.0
C1399 C 0.72752 0.18232 0.62431 0.0
H1400 H 0.57177 0.00051 0.37739 0.0
H1401 H 0.65311 0.97755 0.40327 0.0
H1402 H 0.63789 0.96599 0.44692 0.0
H1403 H 0.60229 0.9666 0.47896 0.0
H1404 H 0.52211 0.9941 0.45426 0.0
H1405 H 0.53574 0.99897 0.4089 0.0
C1406 C 0.58611 0.99272 0.39251 0.0
C1407 C 0.61357 0.99012 0.38709 0.0
C1408 C 0.57732 0.98668 0.41779 0.0
C1409 C 0.6319 0.98006 0.40696 0.0
C1410 C 0.6232 0.97331 0.43193 0.0
C1411 C 0.58766 0.97276 0.46342 0.0
C1412 C 0.56115 0.97947 0.46967 0.0
C1413 C 0.59606 0.97699 0.43771 0.0
C1414 C 0.54253 0.98842 0.44967 0.0
C1415 C 0.55039 0.99147 0.42384 0.0
H1416 H 0.81725 0.86058 0.0661 0.0
H1417 H 0.78628 0.77496 0.05009 0.0
H1418 H 0.80516 0.75854 0.09269 0.0
H1419 H 0.82055 0.77148 0.13787 0.0
H1420 H 0.84578 0.85859 0.15523 0.0
H1421 H 0.83935 0.87152 0.10875 0.0
C1422 C 0.81523 0.83811 0.07154 0.0
C1423 C 0.79965 0.81922 0.05524 0.0
C1424 C 0.82475 0.82927 0.09662 0.0
C1425 C 0.79774 0.79009 0.06246 0.0
C1426 C 0.80837 0.78073 0.08692 0.0
C1427 C 0.82558 0.79297 0.1312 0.0
C1428 C 0.83351 0.81416 0.1497 0.0
C1429 C 0.82042 0.80055 0.10474 0.0
C1430 C 0.83963 0.84206 0.14115 0.0
C1431 C 0.83579 0.84945 0.11467 0.0
H1432 H 0.92761 0.01253 0.7155 0.0
H1433 H 0.00175 -0.00016 0.76225 0.0
H1434 H 0.02349 0.98158 0.72348 0.0
H1435 H 0.02139 0.9707 0.67616 0.0
H1436 H 0.94702 0.98533 0.63012 0.0
H1437 H 0.92486 -0.00034 0.66941 0.0
C1438 C 0.94865 0.00612 0.71727 0.0
C1439 C 0.96327 0.00808 0.74157 0.0
C1440 C 0.96067 0.99516 0.69526 0.0
C1441 C 0.99025 0.99892 0.74361 0.0
C1442 C 0.00256 0.98826 0.72155 0.0
C1443 C 1.00029 0.97687 0.67476 0.0
C1444 C 0.98602 0.97715 0.65014 0.0
C1445 C 0.98793 0.98638 0.69727 0.0
C1446 C 0.95849 0.98449 0.64877 0.0
C1447 C 0.94588 0.99323 0.67118 0.0
H1448 H 0.81013 0.16601 0.43807 0.0
H1449 H 0.72616 0.18437 0.44923 0.0
H1450 H 0.72582 0.21898 0.41309 0.0
H1451 H 0.74856 0.24184 0.37646 0.0
H1452 H 0.8323 0.22278 0.36493 0.0
H1453 H 0.83366 0.19124 0.40335 0.0
C1454 C 0.79176 0.1776 0.43263 0.0
C1455 C 0.76814 0.17233 0.4462 0.0
C1456 C 0.79171 0.19761 0.41186 0.0
C1457 C 0.74461 0.18784 0.43906 0.0
C1458 C 0.74439 0.20772 0.4184 0.0
C1459 C 0.76728 0.23133 0.38272 0.0
C1460 C 0.79029 0.23472 0.36784 0.0
C1461 C 0.76775 0.21259 0.40449 0.0
C1462 C 0.81429 0.22059 0.37604 0.0
C1463 C 0.81505 0.20236 0.39791 0.0
H1464 H 0.63134 0.04801 0.25378 0.0
H1465 H 0.59498 0.96341 0.24702 0.0
H1466 H 0.57495 0.97599 0.20367 0.0
H1467 H 0.57001 0.00997 0.16683 0.0
H1468 H 0.60843 0.09351 0.17248 0.0
H1469 H 0.6256 0.08235 0.2173 0.0
C1470 C 0.61879 0.03238 0.24298 0.0
C1471 C 0.61461 0.00478 0.25365 0.0
C1472 C 0.60789 0.03954 0.21787 0.0
C1473 C 0.59853 0.98475 0.23925 0.0
C1474 C 0.58711 0.99193 0.21447 0.0
C1475 C 0.58175 0.02593 0.17807 0.0
C1476 C 0.58774 0.05266 0.16655 0.0
C1477 C 0.59194 0.01912 0.20349 0.0
C1478 C 0.60356 0.07284 0.18101 0.0
C1479 C 0.61333 0.06645 0.20658 0.0
H1480 H 0.71558 0.85365 0.94288 0.0
H1481 H 0.77502 0.91951 0.92831 0.0
H1482 H 0.7691 0.91105 0.88107 0.0
H1483 H 0.75049 0.88155 0.84435 0.0
H1484 H 0.69374 0.81337 0.85929 0.0
H1485 H 0.69476 0.82635 0.9059 0.0
C1486 C 0.727 0.8664 0.92936 0.0
C1487 C 0.7459 0.88698 0.93912 0.0
C1488 C 0.72395 0.86097 0.90228 0.0
C1489 C 0.76054 0.90333 0.92133 0.0
C1490 C 0.75714 0.89853 0.8943 0.0
C1491 C 0.73786 0.87008 0.85776 0.0
C1492 C 0.72193 0.84672 0.84856 0.0
C1493 C 0.73938 0.87697 0.88461 0.0
C1494 C 0.70604 0.83152 0.86608 0.0
C1495 C 0.70676 0.83884 0.89268 0.0
H1496 H 0.77436 0.98636 -0.00173 0.0
H1497 H 0.77007 0.95144 0.0765 0.0
H1498 H 0.81055 0.97861 0.09082 0.0
H1499 H 0.8516 0.00456 0.0788 0.0
H1500 H 0.85738 0.0361 -0.00053 0.0
H1501 H 0.81182 0.01871 0.98817 0.0
C1502 C 0.78172 0.9855 0.01867 0.0
C1503 C 0.76953 0.96658 0.03619 0.0
C1504 C 0.80566 0.00024 0.0265 0.0
C1505 C 0.77933 0.96564 0.06257 0.0
C1506 C 0.8026 0.981 0.07073 0.0
C1507 C 0.8427 0.00802 0.05917 0.0
C1508 C 0.8581 0.02125 0.03997 0.0
C1509 C 0.81673 0.99709 0.05248 0.0
C1510 C 0.84604 0.02612 0.01475 0.0
C1511 C 0.82 0.01592 0.00814 0.0
H1512 H 0.36302 0.5518 0.00953 0.0
H1513 H 0.3877 0.63058 0.97224 0.0
H1514 H 0.43374 0.61271 0.97039 0.0
H1515 H 0.46778 0.57619 0.9821 0.0
H1516 H 0.44404 0.49894 0.02234 0.0
H1517 H 0.39691 0.51446 0.01997 0.0
C1518 C 0.37844 0.56492 0.00081 0.0
C1519 C 0.37199 0.59253 0.9912 0.0
C1520 C 0.40509 0.55476 0.00031 0.0
C1521 C 0.3922 0.60935 0.98004 0.0
C1522 C 0.41854 0.59913 0.97889 0.0
C1523 C 0.45219 0.56253 0.98991 0.0
C1524 C 0.45932 0.53645 0.00228 0.0
C1525 C 0.42532 0.57206 0.98932 0.0
C1526 C 0.43901 0.51915 0.01271 0.0
C1527 C 0.41209 0.52805 0.01145 0.0
H1528 H 0.21038 0.56723 0.78385 0.0
H1529 H 0.15042 0.61447 0.82436 0.0
H1530 H 0.17113 0.65987 0.81146 0.0
H1531 H 0.20641 0.68616 0.78913 0.0
H1532 H 0.26636 0.63921 0.74828 0.0
H1533 H 0.24514 0.59375 0.7604 0.0
C1534 C 0.20201 0.58746 0.79005 0.0
C1535 C 0.17903 0.58745 0.80525 0.0
C1536 C 0.21375 0.61355 0.78217 0.0
C1537 C 0.16816 0.61386 0.81275 0.0
C1538 C 0.17992 0.63985 0.80529 0.0
C1539 C 0.21467 0.66603 0.78255 0.0
C1540 C 0.23794 0.66617 0.76775 0.0
C1541 C 0.20264 0.63996 0.78993 0.0
C1542 C 0.24842 0.6398 0.75959 0.0
C1543 C 0.23641 0.61375 0.76668 0.0
H1544 H 0.19377 0.50078 0.61275 0.0
H1545 H 0.19693 0.41968 0.57261 0.0
H1546 H 0.16009 0.43441 0.54179 0.0
H1547 H 0.1238 0.46812 0.5298 0.0
H1548 H 0.11683 0.54673 0.5737 0.0
H1549 H 0.15852 0.53566 0.59939 0.0
C1550 C 0.18659 0.48668 0.5969 0.0
C1551 C 0.19854 0.45971 0.594 0.0
C1552 C 0.16469 0.49489 0.58013 0.0
C1553 C 0.18887 0.44114 0.57403 0.0
C1554 C 0.16752 0.44938 0.55681 0.0
C1555 C 0.13184 0.48317 0.54451 0.0
C1556 C 0.11747 0.50821 0.54985 0.0
C1557 C 0.15501 0.47601 0.55996 0.0
C1558 C 0.1277 0.52733 0.56928 0.0
C1559 C 0.15139 0.52093 0.58406 0.0
H1560 H 0.83178 0.96478 0.75566 0.0
H1561 H 0.90409 0.92212 0.73268 0.0
H1562 H 0.87663 0.88613 0.70868 0.0
H1563 H 0.8325 0.86351 0.69934 0.0
H1564 H 0.76058 0.90352 0.72603 0.0
H1565 H 0.78739 0.94473 0.74241 0.0
C1566 C 0.84155 0.94771 0.74529 0.0
C1567 C 0.86989 0.94575 0.74639 0.0
C1568 C 0.82569 0.92696 0.7318 0.0
C1569 C 0.88227 0.92379 0.73252 0.0
C1570 C 0.86661 0.90332 0.71864 0.0
C1571 C 0.8226 0.88183 0.70777 0.0
C1572 C 0.79472 0.88076 0.71144 0.0
C1573 C 0.83833 0.90433 0.71869 0.0
C1574 C 0.78207 0.90419 0.72288 0.0
C1575 C 0.79743 0.92745 0.73259 0.0
H1576 H 0.70581 0.08642 0.51827 0.0
H1577 H 0.74303 0.00367 0.53128 0.0
H1578 H 0.69968 0.98337 0.54384 0.0
H1579 H 0.65087 0.98924 0.55066 0.0
H1580 H 0.61497 0.07303 0.53895 0.0
H1581 H 0.65821 0.09279 0.5268 0.0
C1582 C 0.70445 0.06388 0.52366 0.0
C1583 C 0.72754 0.04651 0.52355 0.0
C1584 C 0.67971 0.05258 0.53141 0.0
C1585 C 0.72549 0.01747 0.53106 0.0
C1586 C 0.70073 0.00588 0.53833 0.0
C1587 C 0.65261 0.01188 0.54576 0.0
C1588 C 0.62961 0.02953 0.54569 0.0
C1589 C 0.67768 0.02326 0.53864 0.0
C1590 C 0.63225 0.05884 0.53917 0.0
C1591 C 0.65698 0.07022 0.53208 0.0
H1592 H 0.21416 0.43239 0.79517 0.0
H1593 H 0.15061 0.3889 0.83514 0.0
H1594 H 0.1773 0.34508 0.83776 0.0
H1595 H 0.21771 0.31823 0.82699 0.0
H1596 H 0.28027 0.36049 0.78483 0.0
H1597 H 0.25525 0.40566 0.78521 0.0
C1598 C 0.20618 0.41335 0.80449 0.0
C1599 C 0.18031 0.41399 0.8148 0.0
C1600 C 0.22158 0.38798 0.80574 0.0
C1601 C 0.17033 0.38905 0.82683 0.0
C1602 C 0.18564 0.36395 0.82846 0.0
C1603 C 0.22613 0.33746 0.81834 0.0
C1604 C 0.25093 0.33605 0.8061 0.0
C1605 C 0.2112 0.36308 0.81784 0.0
C1606 C 0.26128 0.36104 0.7945 0.0
C1607 C 0.2469 0.38684 0.79458 0.0
H1608 H 0.3561 0.61636 0.33394 0.0
H1609 H 0.3536 0.59228 0.25206 0.0
H1610 H 0.32944 0.63638 0.24028 0.0
H1611 H 0.31181 0.6834 0.25288 0.0
H1612 H 0.31649 0.70833 0.33455 0.0
H1613 H 0.3367 0.66222 0.34674 0.0
C1614 C 0.35005 0.62061 0.31355 0.0
C1615 C 0.3568 0.60116 0.29393 0.0
C1616 C 0.33659 0.64624 0.30684 0.0
C1617 C 0.34884 0.60702 0.26757 0.0
C1618 C 0.33499 0.63223 0.26078 0.0
C1619 C 0.31693 0.67854 0.27336 0.0
C1620 C 0.3128 0.69924 0.29275 0.0
C1621 C 0.32916 0.65223 0.2802 0.0
C1622 C 0.31967 0.69278 0.31922 0.0
C1623 C 0.33125 0.66644 0.32623 0.0
H1624 H 0.60297 0.65978 0.59849 0.0
H1625 H 0.52199 0.6935 0.5963 0.0
H1626 H 0.51013 0.66529 0.55694 0.0
H1627 H 0.51958 0.62204 0.53175 0.0
H1628 H 0.59982 0.58624 0.53608 0.0
H1629 H 0.61564 0.62516 0.56506 0.0
C1630 C 0.58298 0.66151 0.58886 0.0
C1631 C 0.56304 0.67768 0.60053 0.0
C1632 C 0.5762 0.64478 0.56673 0.0
C1633 C 0.53747 0.68068 0.58774 0.0
C1634 C 0.53066 0.66448 0.56535 0.0
C1635 C 0.54077 0.62345 0.53825 0.0
C1636 C 0.55828 0.60086 0.53282 0.0
C1637 C 0.54935 0.64504 0.55585 0.0
C1638 C 0.58585 0.60318 0.5405 0.0
C1639 C 0.59483 0.62522 0.55735 0.0
H1640 H 0.65201 0.29133 0.88474 0.0
H1641 H 0.60184 0.25717 0.82039 0.0
H1642 H 0.64133 0.25537 0.79309 0.0
H1643 H 0.69094 0.26327 0.78766 0.0
H1644 H 0.73954 0.29761 0.8533 0.0
H1645 H 0.70009 0.29945 0.8795 0.0
C1646 C 0.64952 0.28349 0.86473 0.0
C1647 C 0.62375 0.2744 0.8548 0.0
C1648 C 0.67229 0.28249 0.84919 0.0
C1649 C 0.62129 0.26436 0.82871 0.0
C1650 C 0.64396 0.2633 0.81304 0.0
C1651 C 0.69287 0.27117 0.80767 0.0
C1652 C 0.71853 0.28027 0.81825 0.0
C1653 C 0.6697 0.27226 0.82307 0.0
C1654 C 0.72036 0.29043 0.84434 0.0
C1655 C 0.69768 0.29153 0.85952 0.0
H1656 H 0.11951 0.30386 0.15475 0.0
H1657 H 0.03281 0.29416 0.15708 0.0
H1658 H 0.02654 0.33666 0.12915 0.0
H1659 H 0.04577 0.37525 0.10276 0.0
H1660 H 0.13229 0.38546 0.10099 0.0
H1661 H 0.1387 0.34362 0.13 0.0
C1662 C 0.09922 0.31111 0.14926 0.0
C1663 C 0.07664 0.29582 0.15774 0.0
C1664 C 0.09581 0.33531 0.13312 0.0
C1665 C 0.0505 0.30563 0.15078 0.0
C1666 C 0.04691 0.32977 0.1347 0.0
C1667 C 0.06599 0.36805 0.10858 0.0
C1668 C 0.08858 0.38282 0.09955 0.0
C1669 C 0.06941 0.34446 0.12545 0.0
C1670 C 0.11471 0.37405 0.10765 0.0
C1671 C 0.11833 0.35029 0.1242 0.0
H1672 H 0.93874 0.76965 0.39037 0.0
H1673 H 0.98477 0.76927 0.32069 0.0
H1674 H 0.94273 0.77195 0.29317 0.0
H1675 H 0.89225 0.77375 0.28891 0.0
H1676 H 0.84744 0.77288 0.3595 0.0
H1677 H 0.88942 0.77153 0.38634 0.0
C1678 C 0.93974 0.77018 0.36915 0.0
C1679 C 0.96511 0.76925 0.35775 0.0
C1680 C 0.91549 0.77158 0.35347 0.0
C1681 C 0.96567 0.7699 0.33014 0.0
C1682 C 0.94155 0.77148 0.31435 0.0
C1683 C 0.89171 0.77348 0.31016 0.0
C1684 C 0.86647 0.77347 0.32203 0.0
C1685 C 0.91625 0.7723 0.32578 0.0
C1686 C 0.86634 0.77284 0.34966 0.0
C1687 C 0.89044 0.77205 0.36514 0.0
H1688 H 0.54855 0.36023 0.91705 0.0
H1689 H 0.5208 0.31439 0.9845 0.0
H1690 H 0.52026 0.35918 0.00935 0.0
H1691 H 0.52723 0.41188 0.01209 0.0
H1692 H 0.55381 0.45767 0.94406 0.0
H1693 H 0.55513 0.41279 0.91963 0.0
C1694 C 0.54249 0.36 0.93722 0.0
C1695 C 0.53478 0.3338 0.94878 0.0
C1696 C 0.54189 0.38603 0.95143 0.0
C1697 C 0.52681 0.33412 0.97495 0.0
C1698 C 0.52648 0.35981 0.98926 0.0
C1699 C 0.53331 0.41205 0.99193 0.0
C1700 C 0.5404 0.43833 0.98008 0.0
C1701 C 0.53389 0.38597 0.97772 0.0
C1702 C 0.54816 0.43795 0.95383 0.0
C1703 C 0.54899 0.41219 0.93975 0.0
H1704 H 0.98641 0.14919 0.22641 0.0
H1705 H 0.02075 0.22182 0.26936 0.0
H1706 H 0.97762 0.23028 0.28884 0.0
H1707 H 0.92935 0.22285 0.28685 0.0
H1708 H 0.89363 0.1504 0.24447 0.0
H1709 H 0.93836 0.13647 0.23093 0.0
C1710 C 0.98461 0.1663 0.24065 0.0
C1711 C 0.00644 0.18523 0.24611 0.0
C1712 C 0.95949 0.17161 0.25117 0.0
C1713 C 0.004 0.20728 0.2646 0.0
C1714 C 0.97935 0.21222 0.27562 0.0
C1715 C 0.93115 0.20332 0.27551 0.0
C1716 C 0.90794 0.18795 0.26648 0.0
C1717 C 0.95673 0.19539 0.26802 0.0
C1718 C 0.91103 0.16313 0.25118 0.0
C1719 C 0.93663 0.15501 0.24359 0.0
H1720 H 0.05281 0.67094 0.4211 0.0
H1721 H 0.0261 0.71849 0.48755 0.0
H1722 H 0.02425 0.67427 0.51324 0.0
H1723 H 0.02962 0.6216 0.5171 0.0
H1724 H 0.05604 0.57395 0.45057 0.0
H1725 H 0.0586 0.61828 0.4251 0.0
C1726 C 0.04662 0.67167 0.4412 0.0
C1727 C 0.0396 0.69827 0.45219 0.0
C1728 C 0.04552 0.64594 0.45606 0.0
C1729 C 0.03163 0.69853 0.47837 0.0
C1730 C 0.03055 0.67314 0.4932 0.0
C1731 C 0.03604 0.62089 0.49707 0.0
C1732 C 0.04262 0.59422 0.48595 0.0
C1733 C 0.03738 0.64665 0.48229 0.0
C1734 C 0.05082 0.59397 0.45984 0.0
C1735 C 0.05228 0.61942 0.44513 0.0
H1736 H 0.62934 0.71185 0.71953 0.0
H1737 H 0.67921 0.65605 0.67551 0.0
H1738 H 0.7063 0.69741 0.66201 0.0
H1739 H 0.71738 0.74849 0.66556 0.0
H1740 H 0.66788 0.80449 0.71023 0.0
H1741 H 0.63763 0.76422 0.71905 0.0
C1742 C 0.64597 0.70899 0.70671 0.0
C1743 C 0.65211 0.68139 0.69794 0.0
C1744 C 0.66111 0.73283 0.69885 0.0
C1745 C 0.67403 0.6774 0.68202 0.0
C1746 C 0.68931 0.70098 0.67419 0.0
C1747 C 0.69941 0.75228 0.67635 0.0
C1748 C 0.69519 0.77941 0.68764 0.0
C1749 C 0.68304 0.72878 0.68255 0.0
C1750 C 0.67165 0.78379 0.70143 0.0
C1751 C 0.65478 0.76063 0.70709 0.0
H1752 H 0.5802 0.52688 0.69708 0.0
H1753 H 0.65459 0.49453 0.66797 0.0
H1754 H 0.63246 0.48734 0.62468 0.0
H1755 H 0.59331 0.49353 0.5944 0.0
H1756 H 0.51906 0.52724 0.6225 0.0
H1757 H 0.5398 0.53025 0.66703 0.0
C1758 C 0.59149 0.51797 0.68134 0.0
C1759 C 0.61907 0.51151 0.6857 0.0
C1760 C 0.57873 0.51423 0.65632 0.0
C1761 C 0.63339 0.49992 0.66511 0.0
C1762 C 0.62077 0.49579 0.64033 0.0
C1763 C 0.58151 0.50131 0.61027 0.0
C1764 C 0.55476 0.51039 0.60509 0.0
C1765 C 0.59364 0.5034 0.63561 0.0
C1766 C 0.53974 0.52019 0.62595 0.0
C1767 C 0.55161 0.52201 0.65139 0.0
H1768 H 0.81104 0.3927 0.98872 0.0
H1769 H 0.83211 0.31013 0.02252 0.0
H1770 H 0.8428 0.29231 0.97905 0.0
H1771 H 0.84311 0.29943 0.93115 0.0
H1772 H 0.82095 0.38192 0.89778 0.0
H1773 H 0.8147 0.4009 0.94163 0.0
C1774 C 0.81794 0.37076 0.98661 0.0
C1775 C 0.82029 0.35254 0.0087 0.0
C1776 C 0.82418 0.36082 0.96173 0.0
C1777 C 0.82988 0.32445 0.00575 0.0
C1778 C 0.83604 0.3143 0.98094 0.0
C1779 C 0.83716 0.32165 0.93353 0.0
C1780 C 0.83229 0.33916 0.9112 0.0
C1781 C 0.83286 0.33219 0.95875 0.0
C1782 C 0.82508 0.36805 0.91459 0.0
C1783 C 0.82115 0.37881 0.93965 0.0
H1784 H 0.99986 0.51992 0.20737 0.0
H1785 H 0.92031 0.53615 0.17225 0.0
H1786 H 0.93944 0.54199 0.12916 0.0
H1787 H 0.97844 0.54024 0.10125 0.0
H1788 H 0.05714 0.51897 0.13554 0.0
H1789 H 0.03884 0.51781 0.17938 0.0
C1790 C 0.98675 0.52492 0.1903 0.0
C1791 C 0.95874 0.52767 0.19294 0.0
C1792 C 0.99779 0.52753 0.16555 0.0
C1793 C 0.94192 0.53379 0.17064 0.0
C1794 C 0.95285 0.53724 0.14605 0.0
C1795 C 0.99165 0.53596 0.11843 0.0
C1796 C 0.01916 0.53024 0.1154 0.0
C1797 C 0.98072 0.53397 0.14326 0.0
C1798 C 0.03596 0.52378 0.13758 0.0
C1799 C 0.02547 0.52295 0.16255 0.0
H1800 H 0.75287 0.6576 0.48144 0.0
H1801 H 0.70878 0.59325 0.43545 0.0
H1802 H 0.69567 0.62972 0.40263 0.0
H1803 H 0.7067 0.67603 0.38235 0.0
H1804 H 0.76018 0.73547 0.42531 0.0
H1805 H 0.75849 0.70566 0.46394 0.0
C1806 C 0.73981 0.65163 0.46454 0.0
C1807 C 0.73273 0.62259 0.46031 0.0
C1808 C 0.73437 0.67201 0.44482 0.0
C1809 C 0.715 0.61538 0.4389 0.0
C1810 C 0.70777 0.63619 0.41997 0.0
C1811 C 0.71812 0.68257 0.40005 0.0
C1812 C 0.73445 0.70764 0.4001 0.0
C1813 C 0.7191 0.66398 0.42182 0.0
C1814 C 0.7475 0.71642 0.42403 0.0
C1815 C 0.74687 0.69909 0.44633 0.0
H1816 H 0.6043 0.58197 0.7998 0.0
H1817 H 0.66706 0.52343 0.82687 0.0
H1818 H 0.65089 0.52501 0.87118 0.0
H1819 H 0.61831 0.54166 0.90195 0.0
H1820 H 0.55303 0.59676 0.87517 0.0
H1821 H 0.57081 0.59822 0.83095 0.0
C1822 C 0.6144 0.56967 0.81547 0.0
C1823 C 0.63676 0.5526 0.81014 0.0
C1824 C 0.60463 0.57019 0.84087 0.0
C1825 C 0.64963 0.53653 0.83048 0.0
C1826 C 0.64051 0.53751 0.85584 0.0
C1827 C 0.60828 0.55432 0.88646 0.0
C1828 C 0.58483 0.5695 0.89159 0.0
C1829 C 0.61801 0.55413 0.8612 0.0
C1830 C 0.57137 0.58523 0.87144 0.0
C1831 C 0.58146 0.58593 0.84627 0.0
H1832 H 0.78067 0.30861 0.11652 0.0
H1833 H 0.7632 0.39264 0.14686 0.0
H1834 H 0.75761 0.372 0.1905 0.0
H1835 H 0.75974 0.3304 0.22054 0.0
H1836 H 0.78195 0.24738 0.19133 0.0
H1837 H 0.78331 0.26706 0.14672 0.0
C1838 C 0.77545 0.32234 0.13266 0.0
C1839 C 0.77227 0.35209 0.12846 0.0
C1840 C 0.77303 0.31044 0.15788 0.0
C1841 C 0.76587 0.36969 0.14963 0.0
C1842 C 0.76259 0.35789 0.17456 0.0
C1843 C 0.76439 0.31656 0.20428 0.0
C1844 C 0.7703 0.28741 0.20903 0.0
C1845 C 0.76632 0.32834 0.17897 0.0
C1846 C 0.77709 0.26983 0.18801 0.0
C1847 C 0.77798 0.28111 0.16257 0.0
H1848 H 0.98043 0.44598 0.3103 0.0
H1849 H 0.97176 0.53819 0.31494 0.0
H1850 H 0.00343 0.53965 0.35314 0.0
H1851 H 0.0289 0.51429 0.38811 0.0
H1852 H 0.03501 0.42185 0.38599 0.0
H1853 H 0.00939 0.42088 0.34355 0.0
C1854 C 0.98577 0.46643 0.31947 0.0
C1855 C 0.97353 0.4919 0.31003 0.0
C1856 C 0.00352 0.46704 0.34183 0.0
C1857 C 0.98063 0.51824 0.32207 0.0
C1858 C 0.99879 0.51911 0.34386 0.0
C1859 C 0.0254 0.49401 0.37793 0.0
C1860 C 0.03393 0.46819 0.38996 0.0
C1861 C 0.00976 0.49358 0.35429 0.0
C1862 C 0.02868 0.44198 0.37695 0.0
C1863 C 0.01389 0.44144 0.35284 0.0
H1864 H 0.8562 0.65056 0.55297 0.0
H1865 H 0.79363 0.68923 0.50294 0.0
H1866 H 0.78792 0.72703 0.53519 0.0
H1867 H 0.79677 0.74536 0.57961 0.0
H1868 H 0.86307 0.71064 0.62794 0.0
H1869 H 0.87106 0.67502 0.59438 0.0
C1870 C 0.8417 0.66759 0.54903 0.0
C1871 C 0.82516 0.66697 0.52584 0.0
C1872 C 0.83884 0.6897 0.56748 0.0
C1873 C 0.80663 0.68928 0.52069 0.0
C1874 C 0.80323 0.71084 0.53918 0.0
C1875 C 0.81356 0.73075 0.58271 0.0
C1876 C 0.82857 0.73032 0.60693 0.0
C1877 C 0.81873 0.71082 0.56295 0.0
C1878 C 0.85022 0.71086 0.61012 0.0
C1879 C 0.85505 0.69052 0.59079 0.0
H1880 H 0.7606 0.51434 0.49243 0.0
H1881 H 0.75497 0.53839 0.57376 0.0
H1882 H 0.71074 0.51473 0.57469 0.0
H1883 H 0.67047 0.49622 0.54996 0.0
H1884 H 0.67427 0.47796 0.46731 0.0
H1885 H 0.72251 0.49027 0.46923 0.0
C1886 C 0.7501 0.51374 0.51061 0.0
C1887 C 0.76088 0.52851 0.53291 0.0
C1888 C 0.72409 0.50159 0.51054 0.0
C1889 C 0.74698 0.52742 0.55628 0.0
C1890 C 0.72161 0.51407 0.55675 0.0
C1891 C 0.68212 0.49404 0.5326 0.0
C1892 C 0.66899 0.48627 0.50851 0.0
C1893 C 0.70943 0.50243 0.53363 0.0
C1894 C 0.68407 0.48399 0.48601 0.0
C1895 C 0.71156 0.49111 0.48711 0.0
H1896 H 0.19857 0.94398 0.60353 0.0
H1897 H 0.23756 0.97736 0.53579 0.0
H1898 H 0.19534 5e-05 0.5202 0.0
H1899 H 0.14624 0.00712 0.52408 0.0
H1900 H 0.10786 0.97273 0.59187 0.0
H1901 H 0.15087 0.95389 0.60903 0.0
C1902 C 0.19798 0.95648 0.58549 0.0
C1903 C 0.22117 0.95871 0.57078 0.0
C1904 C 0.17359 0.96913 0.57646 0.0
C1905 C 0.22 0.97519 0.54752 0.0
C1906 C 0.19581 0.98809 0.53851 0.0
C1907 C 0.14736 0.99574 0.54271 0.0
C1908 C 0.12372 0.99111 0.55645 0.0
C1909 C 0.17229 0.98468 0.55253 0.0
C1910 C 0.12561 0.97641 0.58067 0.0
C1911 C 0.15024 0.9656 0.59058 0.0
H1912 H 0.39976 0.89026 0.74767 0.0
H1913 H 0.32997 0.94389 0.75617 0.0
H1914 H 0.30269 0.90146 0.76591 0.0
H1915 H 0.29854 0.84892 0.77138 0.0
H1916 H 0.36858 0.79572 0.76249 0.0
H1917 H 0.39592 0.83826 0.75396 0.0
C1918 C 0.37855 0.89271 0.75152 0.0
C1919 C 0.36692 0.92021 0.75104 0.0
C1920 C 0.36307 0.86831 0.75733 0.0
C1921 C 0.33944 0.92295 0.75632 0.0
C1922 C 0.32383 0.89871 0.76199 0.0
C1923 C 0.31987 0.8467 0.76794 0.0
C1924 C 0.33151 0.8192 0.76764 0.0
C1925 C 0.33545 0.87127 0.76259 0.0
C1926 C 0.35911 0.81664 0.76283 0.0
C1927 C 0.37476 0.84095 0.75784 0.0
H1928 H 0.37511 0.05384 0.01918 0.0
H1929 H 0.3944 0.12689 0.06908 0.0
H1930 H 0.44255 0.11634 0.06755 0.0
H1931 H 0.47882 0.08442 0.05451 0.0
H1932 H 0.45929 0.01158 0.00442 0.0
H1933 H 0.41146 0.02399 0.0037 0.0
C1934 C 0.38984 0.06764 0.02954 0.0
C1935 C 0.38117 0.09093 0.04444 0.0
C1936 C 0.4174 0.06131 0.0288 0.0
C1937 C 0.40053 0.10878 0.0575 0.0
C1938 C 0.42806 0.10267 0.05677 0.0
C1939 C 0.46409 0.07129 0.04343 0.0
C1940 C 0.47251 0.04694 0.02981 0.0
C1941 C 0.43665 0.07863 0.04294 0.0
C1942 C 0.45328 0.03037 0.01519 0.0
C1943 C 0.42594 0.03743 0.01475 0.0
H1944 H 0.70051 0.62042 0.75301 0.0
H1945 H 0.73712 0.6007 0.68004 0.0
H1946 H 0.75547 0.64962 0.67825 0.0
H1947 H 0.76133 0.69751 0.69758 0.0
H1948 H 0.72366 0.7175 0.76996 0.0
H1949 H 0.70555 0.66853 0.77185 0.0
C1950 C 0.71255 0.62674 0.73671 0.0
C1951 C 0.71764 0.6069 0.71678 0.0
C1952 C 0.72296 0.65477 0.7358 0.0
C1953 C 0.73299 0.61556 0.69566 0.0
C1954 C 0.74355 0.64346 0.69467 0.0
C1955 C 0.74941 0.6911 0.71395 0.0
C1956 C 0.74412 0.71097 0.73379 0.0
C1957 C 0.7388 0.66313 0.71473 0.0
C1958 C 0.72822 0.70249 0.75458 0.0
C1959 C 0.71778 0.67457 0.75562 0.0
H1960 H 0.89425 0.40488 0.06883 0.0
H1961 H 0.85098 0.48509 0.06315 0.0
H1962 H 0.89181 0.50967 0.04925 0.0
H1963 H 0.9399 0.50828 0.03897 0.0
H1964 H 0.98261 0.42768 0.04464 0.0
H1965 H 0.94164 0.40325 0.0578 0.0
C1966 C 0.89374 0.4278 0.06479 0.0
C1967 C 0.86965 0.44317 0.06724 0.0
C1968 C 0.91708 0.44163 0.05641 0.0
C1969 C 0.86932 0.47279 0.06156 0.0
C1970 C 0.89261 0.48682 0.05348 0.0
C1971 C 0.94012 0.48529 0.04268 0.0
C1972 C 0.96425 0.4698 0.04069 0.0
C1973 C 0.91657 0.47141 0.0507 0.0
C1974 C 0.96429 0.44009 0.04594 0.0
C1975 C 0.94092 0.42612 0.05362 0.0
H1976 H 0.34132 0.07321 0.77017 0.0
H1977 H 0.37684 0.10643 0.70043 0.0
H1978 H 0.35389 0.1522 0.7058 0.0
H1979 H 0.32593 0.1837 0.73174 0.0
H1980 H 0.29053 0.15031 0.80151 0.0
H1981 H 0.31109 0.10363 0.79448 0.0
C1982 C 0.34396 0.09039 0.75605 0.0
C1983 C 0.36098 0.08647 0.73508 0.0
C1984 C 0.33076 0.11666 0.75926 0.0
C1985 C 0.36393 0.10889 0.71682 0.0
C1986 C 0.35085 0.1351 0.71989 0.0
C1987 C 0.32251 0.16615 0.74529 0.0
C1988 C 0.30689 0.1706 0.76722 0.0
C1989 C 0.33453 0.13936 0.74125 0.0
C1990 C 0.30254 0.14754 0.7845 0.0
C1991 C 0.31435 0.12083 0.78055 0.0
H1992 H 0.22812 0.9655 0.26289 0.0
H1993 H 0.19373 0.93949 0.187 0.0
H1994 H 0.21735 0.89367 0.19088 0.0
H1995 H 0.24508 0.85961 0.21722 0.0
H1996 H 0.27969 0.88586 0.29298 0.0
H1997 H 0.25887 0.93301 0.28758 0.0
C1998 C 0.22594 0.9499 0.24711 0.0
C1999 C 0.20894 0.95579 0.22484 0.0
C2000 C 0.23955 0.92357 0.24945 0.0
C2001 C 0.20661 0.93548 0.20442 0.0
C2002 C 0.22005 0.90922 0.20663 0.0
C2003 C 0.24828 0.87574 0.23244 0.0
C2004 C 0.26367 0.86908 0.25557 0.0
C2005 C 0.23617 0.90282 0.22928 0.0
C2006 C 0.26785 0.89034 0.275 0.0
C2007 C 0.25587 0.91731 0.27198 0.0
H2008 H 0.49616 0.3418 0.47432 0.0
H2009 H 0.42797 0.38287 0.43422 0.0
H2010 H 0.4318 0.42307 0.46527 0.0
H2011 H 0.46024 0.45023 0.49785 0.0
H2012 H 0.53134 0.41062 0.5339 0.0
H2013 H 0.52034 0.36566 0.51089 0.0
C2014 C 0.48186 0.35935 0.47258 0.0
C2015 C 0.4623 0.35987 0.45166 0.0
C2016 C 0.48479 0.38258 0.48982 0.0
C2017 C 0.44342 0.38225 0.45003 0.0
C2018 C 0.44569 0.40525 0.4677 0.0
C2019 C 0.47266 0.43135 0.50139 0.0
C2020 C 0.49656 0.43348 0.51736 0.0
C2021 C 0.46708 0.40621 0.48688 0.0
C2022 C 0.51286 0.40923 0.52161 0.0
C2023 C 0.50671 0.3837 0.5083 0.0
H2024 H 0.42919 0.79126 0.16589 0.0
H2025 H 0.48093 0.77488 0.23483 0.0
H2026 H 0.44195 0.77891 0.26256 0.0
H2027 H 0.39217 0.78533 0.267 0.0
H2028 H 0.3416 0.80031 0.19686 0.0
H2029 H 0.38092 0.79882 0.17019 0.0
C2030 C 0.43213 0.78863 0.187 0.0
C2031 C 0.45817 0.78266 0.1981 0.0
C2032 C 0.40962 0.7908 0.20277 0.0
C2033 C 0.46124 0.77943 0.22559 0.0
C2034 C 0.43888 0.78174 0.2415 0.0
C2035 C 0.38986 0.78865 0.24593 0.0
C2036 C 0.36374 0.79297 0.23409 0.0
C2037 C 0.41283 0.78724 0.23032 0.0
C2038 C 0.36125 0.79686 0.20665 0.0
C2039 C 0.38381 0.79597 0.19126 0.0
H2040 H 0.9728 0.75059 0.96453 0.0
H2041 H 0.00449 0.7177 0.89312 0.0
H2042 H 0.00626 0.66944 0.91197 0.0
H2043 H 1.00058 0.63706 0.94923 0.0
H2044 H 0.97009 0.66979 0.02106 0.0
H2045 H 0.96584 0.7178 0.00142 0.0
C2046 C 0.98007 0.73287 0.95307 0.0
C2047 C 0.98862 0.73775 0.92752 0.0
C2048 C 0.98112 0.70521 0.96403 0.0
C2049 C 0.99791 0.71455 0.91289 0.0
C2050 C 0.99887 0.68694 0.92361 0.0
C2051 C 0.99249 0.65461 0.96037 0.0
C2052 C 0.98546 0.65003 0.9864 0.0
C2053 C 0.99065 0.68208 0.94917 0.0
C2054 C 0.9756 0.67297 0.00093 0.0
C2055 C 0.97325 0.70035 0.98976 0.0
H2056 H 0.12445 0.26607 0.68568 0.0
H2057 H 0.08869 0.22558 0.75208 0.0
H2058 H 0.13312 0.22183 0.77463 0.0
H2059 H 0.18234 0.23002 0.77594 0.0
H2060 H 0.21871 0.26949 0.70941 0.0
H2061 H 0.17422 0.27336 0.68665 0.0
C2062 C 0.12635 0.25655 0.70513 0.0
C2063 C 0.10301 0.24626 0.71711 0.0
C2064 C 0.15226 0.25405 0.71802 0.0
C2065 C 0.10611 0.23372 0.74226 0.0
C2066 C 0.13161 0.23152 0.75524 0.0
C2067 C 0.18063 0.23933 0.75639 0.0
C2068 C 0.20409 0.24939 0.74451 0.0
C2069 C 0.15487 0.24153 0.74334 0.0
C2070 C 0.2012 0.26142 0.71912 0.0
C2071 C 0.17565 0.26376 0.70607 0.0
H2072 H 0.55977 0.70477 0.07726 0.0
H2073 H 0.51987 0.67376 0.14533 0.0
H2074 H 0.51731 0.62532 0.12647 0.0
H2075 H 0.5267 0.59144 0.09044 0.0
H2076 H 0.56621 0.62363 0.02247 0.0
H2077 H 0.56861 0.67159 0.04152 0.0
C2078 C 0.55046 0.68749 0.08805 0.0
C2079 C 0.54006 0.6931 0.11277 0.0
C2080 C 0.54902 0.65968 0.07707 0.0
C2081 C 0.52804 0.67024 0.12628 0.0
C2082 C 0.5266 0.64245 0.1155 0.0
C2083 C 0.53586 0.60894 0.07982 0.0
C2084 C 0.54628 0.60369 0.05497 0.0
C2085 C 0.53709 0.63685 0.09089 0.0
C2086 C 0.55798 0.6268 0.04155 0.0
C2087 C 0.55939 0.65437 0.05245 0.0
H2088 H 0.09567 0.81402 0.89017 0.0
H2089 H 0.05159 0.82926 0.81622 0.0
H2090 H 0.09361 0.82714 0.7932 0.0
H2091 H 0.14217 0.81702 0.79368 0.0
H2092 H 0.18544 0.79838 0.8674 0.0
H2093 H 0.14458 0.80662 0.89092 0.0
C2094 C 0.09526 0.81722 0.86905 0.0
C2095 C 0.0705 0.8215 0.85491 0.0
C2096 C 0.11938 0.8154 0.85588 0.0
C2097 C 0.07036 0.82569 0.82756 0.0
C2098 C 0.09438 0.82446 0.81437 0.0
C2099 C 0.14268 0.81478 0.8149 0.0
C2100 C 0.16684 0.80687 0.82867 0.0
C2101 C 0.11889 0.81863 0.82826 0.0
C2102 C 0.16726 0.80474 0.85625 0.0
C2103 C 0.14381 0.80917 0.86973 0.0
H2104 H 0.03556 0.33072 0.59472 0.0
H2105 H 0.02005 0.37759 0.66542 0.0
H2106 H 0.01879 0.42257 0.64085 0.0
H2107 H 0.02261 0.44917 0.59955 0.0
H2108 H 0.03853 0.40314 0.52857 0.0
H2109 H 0.03893 0.35764 0.55287 0.0
C2110 C 0.03185 0.35075 0.60474 0.0
C2111 C 0.02794 0.35053 0.63201 0.0
C2112 C 0.03116 0.37688 0.5904 0.0
C2113 C 0.02317 0.37686 0.64454 0.0
C2114 C 0.02242 0.40274 0.63047 0.0
C2115 C 0.02603 0.4292 0.58929 0.0
C2116 C 0.03049 0.42975 0.56217 0.0
C2117 C 0.02643 0.40307 0.60343 0.0
C2118 C 0.035 0.40352 0.54939 0.0
C2119 C 0.03528 0.37741 0.56331 0.0
H2120 H 0.40045 0.26564 0.42097 0.0
H2121 H 0.44254 0.23679 0.35389 0.0
H2122 H 0.39956 0.2247 0.3308 0.0
H2123 H 0.35108 0.23159 0.32657 0.0
H2124 H 0.30888 0.26709 0.39106 0.0
H2125 H 0.35065 0.26633 0.41873 0.0
C2126 C 0.40009 0.25596 0.40159 0.0
C2127 C 0.42431 0.25239 0.38885 0.0
C2128 C 0.37531 0.25053 0.38796 0.0
C2129 C 0.42392 0.24001 0.36376 0.0
C2130 C 0.39943 0.23314 0.35061 0.0
C2131 C 0.35082 0.23858 0.34687 0.0
C2132 C 0.32718 0.25017 0.35654 0.0
C2133 C 0.37507 0.23973 0.36201 0.0
C2134 C 0.32699 0.25849 0.38304 0.0
C2135 C 0.3509 0.25828 0.3988 0.0
H2136 H 0.44329 0.54783 0.36891 0.0
H2137 H 0.48646 0.47303 0.3443 0.0
H2138 H 0.5128 0.47253 0.38615 0.0
H2139 H 0.52128 0.49145 0.43099 0.0
H2140 H 0.47578 0.56436 0.45603 0.0
H2141 H 0.45291 0.56777 0.41263 0.0
C2142 C 0.45861 0.53155 0.3726 0.0
C2143 C 0.4628 0.51041 0.35365 0.0
C2144 C 0.47329 0.53108 0.39679 0.0
C2145 C 0.4827 0.48943 0.35871 0.0
C2146 C 0.49781 0.48915 0.3826 0.0
C2147 C 0.50669 0.50833 0.4267 0.0
C2148 C 0.50014 0.5276 0.44651 0.0
C2149 C 0.49298 0.50961 0.40194 0.0
C2150 C 0.48099 0.5492 0.44099 0.0
C2151 C 0.46789 0.55114 0.41625 0.0
H2152 H 0.30567 0.70654 0.05544 0.0
H2153 H 0.25301 0.63401 0.06858 0.0
H2154 H 0.23854 0.6559 0.10896 0.0
H2155 H 0.24136 0.69516 0.14084 0.0
H2156 H 0.29792 0.7651 0.13005 0.0
H2157 H 0.30938 0.74527 0.08811 0.0
C2158 C 0.29101 0.6956 0.06716 0.0
C2159 C 0.28054 0.66872 0.05915 0.0
C2160 C 0.28313 0.70802 0.09064 0.0
C2161 C 0.26162 0.65464 0.07452 0.0
C2162 C 0.2532 0.66719 0.09754 0.0
C2163 C 0.25636 0.70603 0.12952 0.0
C2164 C 0.26846 0.7318 0.13881 0.0
C2165 C 0.26397 0.69379 0.10588 0.0
C2166 C 0.28753 0.7457 0.12334 0.0
C2167 C 0.29449 0.73415 0.09939 0.0
H2168 H 0.09267 0.51271 0.87264 0.0
H2169 H 0.15583 0.45979 0.90822 0.0
H2170 H 0.13084 0.45547 0.94809 0.0
H2171 H 0.09267 0.46906 0.97388 0.0
H2172 H 0.03078 0.52456 0.93987 0.0
H2173 H 0.05337 0.52504 0.89819 0.0
C2174 C 0.10089 0.50011 0.88907 0.0
C2175 C 0.12619 0.48675 0.88747 0.0
C2176 C 0.08656 0.49802 0.91217 0.0
C2177 C 0.13654 0.47052 0.90896 0.0
C2178 C 0.12222 0.46793 0.93177 0.0
C2179 C 0.08378 0.48079 0.9572 0.0
C2180 C 0.05998 0.49661 0.95992 0.0
C2181 C 0.09738 0.48185 0.9337 0.0
C2182 C 0.04903 0.51211 0.93823 0.0
C2183 C 0.06203 0.51253 0.91446 0.0
H2184 H 0.33786 0.39651 0.60498 0.0
H2185 H 0.29006 0.333 0.56158 0.0
H2186 H 0.29934 0.29773 0.59628 0.0
H2187 H 0.31099 0.2899 0.6426 0.0
H2188 H 0.36173 0.35173 0.68562 0.0
H2189 H 0.36097 0.38292 0.6472 0.0
C2190 C 0.33044 0.37457 0.60271 0.0
C2191 C 0.3128 0.36748 0.58119 0.0
C2192 C 0.33547 0.35453 0.62295 0.0
C2193 C 0.30357 0.33899 0.57809 0.0
C2194 C 0.30857 0.31891 0.59811 0.0
C2195 C 0.32292 0.30951 0.64367 0.0
C2196 C 0.33518 0.31889 0.66779 0.0
C2197 C 0.32301 0.32711 0.62131 0.0
C2198 C 0.35064 0.34453 0.66799 0.0
C2199 C 0.35053 0.36233 0.64586 0.0
H2200 H 0.43448 0.50766 0.21351 0.0
H2201 H 0.51186 0.52028 0.25506 0.0
H2202 H 0.53478 0.50183 0.21719 0.0
H2203 H 0.53269 0.48493 0.1716 0.0
H2204 H 0.45502 0.47757 0.12925 0.0
H2205 H 0.43234 0.48916 0.16891 0.0
C2206 C 0.45638 0.50642 0.21438 0.0
C2207 C 0.47148 0.5157 0.23692 0.0
C2208 C 0.46933 0.49604 0.19264 0.0
C2209 C 0.4998 0.51365 0.23776 0.0
C2210 C 0.51288 0.50291 0.21622 0.0
C2211 C 0.51079 0.48585 0.17098 0.0
C2212 C 0.49575 0.48081 0.1472 0.0
C2213 C 0.49782 0.49443 0.19344 0.0
C2214 C 0.46732 0.48102 0.14715 0.0
C2215 C 0.45424 0.48819 0.16977 0.0
H2216 H 0.32933 0.63745 0.90635 0.0
H2217 H 0.2591 0.67545 0.93873 0.0
H2218 H 0.25633 0.7104 0.90271 0.0
H2219 H 0.27187 0.72758 0.86029 0.0
H2220 H 0.34232 0.68938 0.82829 0.0
H2221 H 0.34733 0.65752 0.86626 0.0
C2222 C 0.31344 0.65341 0.90553 0.0
C2223 C 0.29419 0.65361 0.92487 0.0
C2224 C 0.31212 0.67352 0.88497 0.0
C2225 C 0.27404 0.67476 0.92392 0.0
C2226 C 0.27246 0.69476 0.90336 0.0
C2227 C 0.28864 0.71269 0.86186 0.0
C2228 C 0.30652 0.71069 0.84134 0.0
C2229 C 0.29116 0.69405 0.88356 0.0
C2230 C 0.32816 0.69127 0.84372 0.0
C2231 C 0.33096 0.6729 0.86536 0.0
H2232 H 0.0684 0.46914 0.73599 0.0
H2233 H 0.10821 0.55079 0.75136 0.0
H2234 H 0.08509 0.57152 0.71254 0.0
H2235 H 0.05609 0.56574 0.67259 0.0
H2236 H 0.01955 0.48279 0.65501 0.0
H2237 H 0.03788 0.4639 0.69661 0.0
C2238 C 0.0718 0.49152 0.73096 0.0
C2239 C 0.09019 0.50825 0.74643 0.0
C2240 C 0.05881 0.50327 0.70823 0.0
C2241 C 0.0944 0.53727 0.73963 0.0
C2242 C 0.08112 0.54922 0.71745 0.0
C2243 C 0.05204 0.54355 0.67782 0.0
C2244 C 0.03639 0.52591 0.66044 0.0
C2245 C 0.06369 0.53228 0.70132 0.0
C2246 C 0.03101 0.49728 0.66801 0.0
C2247 C 0.04185 0.48621 0.69174 0.0
H2248 H 0.19478 0.4267 0.47567 0.0
H2249 H 0.23673 0.36217 0.52292 0.0
H2250 H 0.23503 0.32937 0.48581 0.0
H2251 H 0.22753 0.32159 0.4388 0.0
H2252 H 0.1831 0.38427 0.39146 0.0
H2253 H 0.18017 0.41517 0.4298 0.0
C2254 C 0.20313 0.40529 0.47797 0.0
C2255 C 0.21644 0.39727 0.50191 0.0
C2256 C 0.2021 0.38631 0.45645 0.0
C2257 C 0.22673 0.36921 0.50465 0.0
C2258 C 0.22584 0.35036 0.48339 0.0
C2259 C 0.21639 0.34151 0.43679 0.0
C2260 C 0.20615 0.35069 0.41189 0.0
C2261 C 0.21441 0.35905 0.45897 0.0
C2262 C 0.19205 0.37691 0.41008 0.0
C2263 C 0.19018 0.3946 0.43208 0.0
H2264 H 0.30027 0.51377 0.57174 0.0
H2265 H 0.30135 0.49083 0.48972 0.0
H2266 H 0.34241 0.51954 0.48533 0.0
H2267 H 0.38287 0.54099 0.50721 0.0
H2268 H 0.3843 0.55858 0.5903 0.0
H2269 H 0.33718 0.54261 0.59188 0.0
C2270 C 0.30901 0.5157 0.55269 0.0
C2271 C 0.29821 0.49958 0.53124 0.0
C2272 C 0.33333 0.53099 0.55067 0.0
C2273 C 0.30959 0.50261 0.50665 0.0
C2274 C 0.33314 0.51892 0.50417 0.0
C2275 C 0.37247 0.54242 0.52542 0.0
C2276 C 0.3869 0.55068 0.54866 0.0
C2277 C 0.34599 0.53172 0.5264 0.0
C2278 C 0.37347 0.55212 0.57224 0.0
C2279 C 0.34665 0.5428 0.57314 0.0
H2280 H 0.88754 0.08827 0.46322 0.0
H2281 H 0.85322 0.04646 0.52977 0.0
H2282 H 0.89625 0.02285 0.5405 0.0
H2283 H 0.94448 0.01657 0.53274 0.0
H2284 H 0.97879 0.05891 0.46643 0.0
H2285 H 0.9349 0.07956 0.45383 0.0
C2286 C 0.88937 0.07382 0.47995 0.0
C2287 C 0.86719 0.06939 0.49577 0.0
C2288 C 0.91425 0.06045 0.48615 0.0
C2289 C 0.86995 0.05042 0.51729 0.0
C2290 C 0.8946 0.03691 0.52349 0.0
C2291 C 0.94231 0.03007 0.51537 0.0
C2292 C 0.96501 0.03631 0.5007 0.0
C2293 C 0.91701 0.04214 0.50832 0.0
C2294 C 0.96175 0.05382 0.4782 0.0
C2295 C 0.93664 0.06571 0.47098 0.0
H2296 H 0.71662 0.08328 0.30111 0.0
H2297 H 0.65198 0.12399 0.34053 0.0
H2298 H 0.66943 0.17141 0.32867 0.0
H2299 H 0.70376 0.20129 0.30796 0.0
H2300 H 0.76803 0.16015 0.2682 0.0
H2301 H 0.74964 0.11296 0.27884 0.0
C2302 C 0.70647 0.10253 0.30729 0.0
C2303 C 0.68324 0.10013 0.32196 0.0
C2304 C 0.71631 0.12966 0.3 0.0
C2305 C 0.67001 0.12527 0.32938 0.0
C2306 C 0.6799 0.15239 0.3225 0.0
C2307 C 0.71346 0.18201 0.30122 0.0
C2308 C 0.73723 0.18429 0.28729 0.0
C2309 C 0.70303 0.15485 0.30779 0.0
C2310 C 0.7497 0.15905 0.27894 0.0
C2311 C 0.73931 0.13201 0.28516 0.0
H2312 H 0.68913 0.91871 0.08132 0.0
H2313 H 0.68564 0.88761 0.00168 0.0
H2314 H 0.66178 0.93111 0.98675 0.0
H2315 H 0.63459 0.97296 0.99822 0.0
H2316 H 0.63871 0.00415 0.07811 0.0
H2317 H 0.67047 0.96631 0.09092 0.0
C2318 C 0.68374 0.92197 0.06062 0.0
C2319 C 0.68867 0.90015 0.04258 0.0
C2320 C 0.67005 0.94693 0.05229 0.0
C2321 C 0.68197 0.90436 0.01579 0.0
C2322 C 0.6682 0.92909 0.00732 0.0
C2323 C 0.6431 0.97204 0.01824 0.0
C2324 C 0.63369 0.99084 0.0373 0.0
C2325 C 0.66105 0.94987 0.02563 0.0
C2326 C 0.64531 0.98974 0.06306 0.0
C2327 C 0.66331 0.9679 0.07051 0.0
H2328 H 0.35054 0.45653 0.30857 0.0
H2329 H 0.40262 0.41983 0.25207 0.0
H2330 H 0.37889 0.37397 0.25473 0.0
H2331 H 0.34348 0.34448 0.27257 0.0
H2332 H 0.29086 0.38026 0.32898 0.0
H2333 H 0.31492 0.42638 0.32699 0.0
C2334 C 0.35664 0.4385 0.29681 0.0
C2335 C 0.37826 0.44161 0.28011 0.0
C2336 C 0.34295 0.41207 0.29847 0.0
C2337 C 0.38603 0.41804 0.26509 0.0
C2338 C 0.37251 0.39177 0.26659 0.0
C2339 C 0.33725 0.36229 0.28453 0.0
C2340 C 0.31542 0.35898 0.30087 0.0
C2341 C 0.35097 0.38859 0.28318 0.0
C2342 C 0.30766 0.38228 0.31624 0.0
C2343 C 0.32135 0.40865 0.31507 0.0
H2344 H 0.18652 0.62041 0.00948 0.0
H2345 H 0.22463 0.53742 0.00502 0.0
H2346 H 0.18317 0.51399 0.01869 0.0
H2347 H 0.13614 0.51714 0.03153 0.0
H2348 H 0.09783 0.6001 0.03479 0.0
H2349 H 0.13971 0.62359 0.0224 0.0
C2350 C 0.1858 0.59716 0.01137 0.0
C2351 C 0.20865 0.58068 0.00615 0.0
C2352 C 0.16202 0.5839 0.01935 0.0
C2353 C 0.20731 0.55061 0.00879 0.0
C2354 C 0.18366 0.53722 0.01674 0.0
C2355 C 0.13705 0.54041 0.02991 0.0
C2356 C 0.11398 0.5569 0.0343 0.0
C2357 C 0.16095 0.55368 0.02216 0.0
C2358 C 0.11536 0.58696 0.03166 0.0
C2359 C 0.13923 0.60037 0.02444 0.0
H2360 H 0.71411 0.93237 0.33128 0.0
H2361 H 0.73624 0.9644 0.2556 0.0
H2362 H 0.76204 0.92071 0.24858 0.0
H2363 H 0.7758 0.87205 0.26272 0.0
H2364 H 0.75238 0.83987 0.33794 0.0
H2365 H 0.72988 0.88516 0.34643 0.0
C2366 C 0.72469 0.92993 0.31329 0.0
C2367 C 0.72303 0.95158 0.29391 0.0
C2368 C 0.73929 0.9047 0.30929 0.0
C2369 C 0.73705 0.94806 0.27081 0.0
C2370 C 0.75181 0.92305 0.26676 0.0
C2371 C 0.76613 0.87511 0.28114 0.0
C2372 C 0.7657 0.85255 0.29962 0.0
C2373 C 0.75275 0.90105 0.28571 0.0
C2374 C 0.75293 0.85682 0.32333 0.0
C2375 C 0.73998 0.88269 0.32818 0.0
H2376 H 0.86942 0.1175 0.83852 0.0
H2377 H 0.83456 0.08368 0.7654 0.0
H2378 H 0.80733 0.12678 0.75918 0.0
H2379 H 0.79732 0.17592 0.77191 0.0
H2380 H 0.8335 0.21083 0.844 0.0
H2381 H 0.85586 0.16509 0.85347 0.0
C2382 C 0.85567 0.11944 0.82136 0.0
C2383 C 0.85438 0.0977 0.80224 0.0
C2384 C 0.84032 0.14443 0.81769 0.0
C2385 C 0.83621 0.10031 0.78027 0.0
C2386 C 0.82059 0.12493 0.77668 0.0
C2387 C 0.80971 0.1734 0.78994 0.0
C2388 C 0.81411 0.19681 0.80701 0.0
C2389 C 0.82305 0.14741 0.7949 0.0
C2390 C 0.83004 0.19316 0.83038 0.0
C2391 C 0.84293 0.16708 0.83577 0.0
loop_
_geom_bond_atom_site_label_1
_geom_bond_atom_site_label_2
_geom_bond_distance
_geom_bond_site_symmetry_2
_ccdc_geom_bond_type
C0 O1 1.160 . S
C0 O7 1.185 . S
O1 C0 1.160 . S
O2 Zn3 1.899 . S
O2 C10 1.284 . S
Zn3 O2 1.899 . S
Zn3 O4 2.032 . S
Zn3 O7 2.086 . S
Zn3 O12 1.977 . S
O4 Zn3 2.032 . S
O4 C8 1.278 . S
C5 O6 1.203 . S
C5 O12 1.267 . S
O6 C5 1.203 . S
O7 C0 1.185 . S
O7 Zn3 2.086 . S
C8 O4 1.278 . S
C8 O9 1.211 . S
O9 C8 1.211 . S
C10 O2 1.284 . S
C10 O11 1.273 . S
O11 C10 1.273 . S
O12 Zn3 1.977 . S
O12 C5 1.267 . S
C13 O14 1.160 . S
C13 O20 1.185 . S
O14 C13 1.160 . S
O15 Zn16 1.899 . S
O15 C23 1.284 . S
Zn16 O15 1.899 . S
Zn16 O17 2.032 . S
Zn16 O20 2.086 . S
Zn16 O25 1.977 . S
O17 Zn16 2.032 . S
O17 C21 1.278 . S
C18 O19 1.203 . S
C18 O25 1.267 1_655 S
O19 C18 1.203 . S
O20 C13 1.185 . S
O20 Zn16 2.086 . S
C21 O17 1.278 . S
C21 O22 1.211 . S
O22 C21 1.211 . S
C23 O15 1.284 . S
C23 O24 1.273 . S
O24 C23 1.273 . S
O25 Zn16 1.977 . S
O25 C18 1.267 1_455 S
C26 O27 1.160 . S
C26 O33 1.185 . S
O27 C26 1.160 . S
O28 Zn29 1.899 . S
O28 C36 1.284 . S
Zn29 O28 1.899 . S
Zn29 O30 2.032 . S
Zn29 O33 2.086 . S
Zn29 O38 1.977 . S
O30 Zn29 2.032 . S
O30 C34 1.278 . S
C31 O32 1.203 . S
C31 O38 1.267 . S
O32 C31 1.203 . S
O33 C26 1.185 . S
O33 Zn29 2.086 . S
C34 O30 1.278 . S
C34 O35 1.211 . S
O35 C34 1.211 . S
C36 O28 1.284 . S
C36 O37 1.273 . S
O37 C36 1.273 . S
O38 Zn29 1.977 . S
O38 C31 1.267 . S
C39 O40 1.160 . S
C39 O46 1.185 . S
O40 C39 1.160 . S
O41 Zn42 1.899 . S
O41 C49 1.284 . S
Zn42 O41 1.899 . S
Zn42 O43 2.032 . S
Zn42 O46 2.086 . S
Zn42 O51 1.977 . S
O43 Zn42 2.032 . S
O43 C47 1.278 . S
C44 O45 1.203 . S
C44 O51 1.267 . S
O45 C44 1.203 . S
O46 C39 1.185 . S
O46 Zn42 2.086 . S
C47 O43 1.278 . S
C47 O48 1.211 . S
O48 C47 1.211 . S
C49 O41 1.284 . S
C49 O50 1.273 . S
O50 C49 1.273 . S
O51 Zn42 1.977 . S
O51 C44 1.267 . S
C52 O53 1.160 . S
C52 O59 1.185 . S
O53 C52 1.160 . S
O54 Zn55 1.899 . S
O54 C62 1.284 . S
Zn55 O54 1.899 . S
Zn55 O56 2.032 . S
Zn55 O59 2.086 1_545 S
Zn55 O64 1.977 . S
O56 Zn55 2.032 . S
O56 C60 1.278 . S
C57 O58 1.203 . S
C57 O64 1.267 . S
O58 C57 1.203 . S
O59 C52 1.185 . S
O59 Zn55 2.086 1_565 S
C60 O56 1.278 . S
C60 O61 1.211 . S
O61 C60 1.211 . S
C62 O54 1.284 . S
C62 O63 1.273 . S
O63 C62 1.273 . S
O64 Zn55 1.977 . S
O64 C57 1.267 . S
C65 O66 1.160 . S
C65 O72 1.185 . S
O66 C65 1.160 . S
O67 Zn68 1.899 . S
O67 C75 1.284 . S
Zn68 O67 1.899 . S
Zn68 O69 2.032 . S
Zn68 O72 2.086 . S
Zn68 O77 1.977 . S
O69 Zn68 2.032 . S
O69 C73 1.278 . S
C70 O71 1.203 . S
C70 O77 1.267 . S
O71 C70 1.203 . S
O72 C65 1.185 . S
O72 Zn68 2.086 . S
C73 O69 1.278 . S
C73 O74 1.211 . S
O74 C73 1.211 . S
C75 O67 1.284 . S
C75 O76 1.273 . S
O76 C75 1.273 . S
O77 Zn68 1.977 . S
O77 C70 1.267 . S
C78 O79 1.160 . S
C78 O85 1.185 . S
O79 C78 1.160 . S
O80 Zn81 1.899 . S
O80 C88 1.284 . S
Zn81 O80 1.899 . S
Zn81 O82 2.032 . S
Zn81 O85 2.086 . S
Zn81 O90 1.977 1_545 S
O82 Zn81 2.032 . S
O82 C86 1.278 . S
C83 O84 1.203 . S
C83 O90 1.267 . S
O84 C83 1.203 . S
O85 C78 1.185 . S
O85 Zn81 2.086 . S
C86 O82 1.278 . S
C86 O87 1.211 1_545 S
O87 C86 1.211 1_565 S
C88 O80 1.284 . S
C88 O89 1.273 . S
O89 C88 1.273 . S
O90 Zn81 1.977 1_565 S
O90 C83 1.267 . S
C91 O92 1.160 . S
C91 O98 1.185 . S
O92 C91 1.160 . S
O93 Zn94 1.899 . S
O93 C101 1.284 . S
Zn94 O93 1.899 . S
Zn94 O95 2.032 . S
Zn94 O98 2.086 . S
Zn94 O103 1.977 . S
O95 Zn94 2.032 . S
O95 C99 1.278 1_554 S
C96 O97 1.203 . S
C96 O103 1.267 . S
O97 C96 1.203 . S
O98 C91 1.185 . S
O98 Zn94 2.086 . S
C99 O95 1.278 1_556 S
C99 O100 1.211 . S
O100 C99 1.211 . S
C101 O93 1.284 . S
C101 O102 1.273 . S
O102 C101 1.273 . S
O103 Zn94 1.977 . S
O103 C96 1.267 . S
C104 O105 1.160 . S
C104 O111 1.185 . S
O105 C104 1.160 . S
O106 Zn107 1.899 . S
O106 C114 1.284 . S
Zn107 O106 1.899 . S
Zn107 O108 2.032 . S
Zn107 O111 2.086 . S
Zn107 O116 1.977 . S
O108 Zn107 2.032 . S
O108 C112 1.278 . S
C109 O110 1.203 . S
C109 O116 1.267 . S
O110 C109 1.203 . S
O111 C104 1.185 . S
O111 Zn107 2.086 . S
C112 O108 1.278 . S
C112 O113 1.211 . S
O113 C112 1.211 . S
C114 O106 1.284 . S
C114 O115 1.273 . S
O115 C114 1.273 . S
O116 Zn107 1.977 . S
O116 C109 1.267 . S
C117 O118 1.160 . S
C117 O124 1.185 . S
O118 C117 1.160 . S
O119 Zn120 1.899 . S
O119 C127 1.284 . S
Zn120 O119 1.899 . S
Zn120 O121 2.032 . S
Zn120 O124 2.086 . S
Zn120 O129 1.977 . S
O121 Zn120 2.032 . S
O121 C125 1.278 . S
C122 O123 1.203 . S
C122 O129 1.267 . S
O123 C122 1.203 . S
O124 C117 1.185 . S
O124 Zn120 2.086 . S
C125 O121 1.278 . S
C125 O126 1.211 . S
O126 C125 1.211 . S
C127 O119 1.284 . S
C127 O128 1.273 . S
O128 C127 1.273 . S
O129 Zn120 1.977 . S
O129 C122 1.267 . S
C130 O131 1.160 . S
C130 O137 1.185 . S
O131 C130 1.160 . S
O132 Zn133 1.899 . S
O132 C140 1.284 . S
Zn133 O132 1.899 . S
Zn133 O134 2.032 . S
Zn133 O137 2.086 . S
Zn133 O142 1.977 . S
O134 Zn133 2.032 . S
O134 C138 1.278 . S
C135 O136 1.203 . S
C135 O142 1.267 . S
O136 C135 1.203 . S
O137 C130 1.185 . S
O137 Zn133 2.086 . S
C138 O134 1.278 . S
C138 O139 1.211 . S
O139 C138 1.211 . S
C140 O132 1.284 . S
C140 O141 1.273 . S
O141 C140 1.273 . S
O142 Zn133 1.977 . S
O142 C135 1.267 . S
C143 O144 1.160 . S
C143 O150 1.185 . S
O144 C143 1.160 . S
O145 Zn146 1.899 . S
O145 C153 1.284 . S
Zn146 O145 1.899 . S
Zn146 O147 2.032 . S
Zn146 O150 2.086 . S
Zn146 O155 1.977 . S
O147 Zn146 2.032 . S
O147 C151 1.278 . S
C148 O149 1.203 . S
C148 O155 1.267 . S
O149 C148 1.203 . S
O150 C143 1.185 . S
O150 Zn146 2.086 . S
C151 O147 1.278 . S
C151 O152 1.211 . S
O152 C151 1.211 . S
C153 O145 1.284 . S
C153 O154 1.273 . S
O154 C153 1.273 . S
O155 Zn146 1.977 . S
O155 C148 1.267 . S
C156 O157 1.160 . S
C156 O163 1.185 . S
O157 C156 1.160 . S
O158 Zn159 1.899 . S
O158 C166 1.284 1_455 S
Zn159 O158 1.899 . S
Zn159 O160 2.032 . S
Zn159 O163 2.086 . S
Zn159 O168 1.977 1_455 S
O160 Zn159 2.032 . S
O160 C164 1.278 1_455 S
C161 O162 1.203 . S
C161 O168 1.267 . S
O162 C161 1.203 . S
O163 C156 1.185 . S
O163 Zn159 2.086 . S
C164 O160 1.278 1_655 S
C164 O165 1.211 . S
O165 C164 1.211 . S
C166 O158 1.284 1_655 S
C166 O167 1.273 . S
O167 C166 1.273 . S
O168 Zn159 1.977 1_655 S
O168 C161 1.267 . S
C169 O170 1.160 . S
C169 O176 1.185 1_655 S
O170 C169 1.160 . S
O171 Zn172 1.899 . S
O171 C179 1.284 . S
Zn172 O171 1.899 . S
Zn172 O173 2.032 . S
Zn172 O176 2.086 . S
Zn172 O181 1.977 . S
O173 Zn172 2.032 . S
O173 C177 1.278 . S
C174 O175 1.203 . S
C174 O181 1.267 . S
O175 C174 1.203 . S
O176 C169 1.185 1_455 S
O176 Zn172 2.086 . S
C177 O173 1.278 . S
C177 O178 1.211 . S
O178 C177 1.211 . S
C179 O171 1.284 . S
C179 O180 1.273 . S
O180 C179 1.273 . S
O181 Zn172 1.977 . S
O181 C174 1.267 . S
C182 O183 1.160 . S
C182 O189 1.185 . S
O183 C182 1.160 . S
O184 Zn185 1.899 . S
O184 C192 1.284 . S
Zn185 O184 1.899 . S
Zn185 O186 2.032 . S
Zn185 O189 2.086 . S
Zn185 O194 1.977 . S
O186 Zn185 2.032 . S
O186 C190 1.278 . S
C187 O188 1.203 . S
C187 O194 1.267 . S
O188 C187 1.203 . S
O189 C182 1.185 . S
O189 Zn185 2.086 . S
C190 O186 1.278 . S
C190 O191 1.211 . S
O191 C190 1.211 . S
C192 O184 1.284 . S
C192 O193 1.273 . S
O193 C192 1.273 . S
O194 Zn185 1.977 . S
O194 C187 1.267 . S
C195 O196 1.160 . S
C195 O202 1.185 . S
O196 C195 1.160 . S
O197 Zn198 1.899 . S
O197 C205 1.284 . S
Zn198 O197 1.899 . S
Zn198 O199 2.032 . S
Zn198 O202 2.086 . S
Zn198 O207 1.977 . S
O199 Zn198 2.032 . S
O199 C203 1.278 . S
C200 O201 1.203 . S
C200 O207 1.267 . S
O201 C200 1.203 . S
O202 C195 1.185 . S
O202 Zn198 2.086 . S
C203 O199 1.278 . S
C203 O204 1.211 . S
O204 C203 1.211 . S
C205 O197 1.284 . S
C205 O206 1.273 . S
O206 C205 1.273 . S
O207 Zn198 1.977 . S
O207 C200 1.267 . S
C208 O209 1.160 . S
C208 O215 1.185 . S
O209 C208 1.160 . S
O210 Zn211 1.899 . S
O210 C218 1.284 . S
Zn211 O210 1.899 . S
Zn211 O212 2.032 . S
Zn211 O215 2.086 . S
Zn211 O220 1.977 1_545 S
O212 Zn211 2.032 . S
O212 C216 1.278 . S
C213 O214 1.203 . S
C213 O220 1.267 . S
O214 C213 1.203 . S
O215 C208 1.185 . S
O215 Zn211 2.086 . S
C216 O212 1.278 . S
C216 O217 1.211 1_545 S
O217 C216 1.211 1_565 S
C218 O210 1.284 . S
C218 O219 1.273 1_545 S
O219 C218 1.273 1_565 S
O220 Zn211 1.977 1_565 S
O220 C213 1.267 . S
C221 O222 1.160 . S
C221 O228 1.185 . S
O222 C221 1.160 . S
O223 Zn224 1.899 . S
O223 C231 1.284 . S
Zn224 O223 1.899 . S
Zn224 O225 2.032 . S
Zn224 O228 2.086 . S
Zn224 O233 1.977 . S
O225 Zn224 2.032 . S
O225 C229 1.278 . S
C226 O227 1.203 . S
C226 O233 1.267 . S
O227 C226 1.203 . S
O228 C221 1.185 . S
O228 Zn224 2.086 . S
C229 O225 1.278 . S
C229 O230 1.211 . S
O230 C229 1.211 . S
C231 O223 1.284 . S
C231 O232 1.273 . S
O232 C231 1.273 . S
O233 Zn224 1.977 . S
O233 C226 1.267 . S
C234 O235 1.160 . S
C234 O241 1.185 . S
O235 C234 1.160 . S
O236 Zn237 1.899 . S
O236 C244 1.284 . S
Zn237 O236 1.899 . S
Zn237 O238 2.032 . S
Zn237 O241 2.086 1_545 S
Zn237 O246 1.977 . S
O238 Zn237 2.032 . S
O238 C242 1.278 . S
C239 O240 1.203 . S
C239 O246 1.267 . S
O240 C239 1.203 . S
O241 C234 1.185 . S
O241 Zn237 2.086 1_565 S
C242 O238 1.278 . S
C242 O243 1.211 . S
O243 C242 1.211 . S
C244 O236 1.284 . S
C244 O245 1.273 . S
O245 C244 1.273 . S
O246 Zn237 1.977 . S
O246 C239 1.267 . S
C247 O248 1.160 . S
C247 O254 1.185 . S
O248 C247 1.160 . S
O249 Zn250 1.899 . S
O249 C257 1.284 . S
Zn250 O249 1.899 . S
Zn250 O251 2.008 1_554 S
Zn250 O254 2.086 . S
Zn250 O259 1.977 . S
O251 Zn250 2.008 1_556 S
O251 C255 1.294 . S
C252 O253 1.203 . S
C252 O259 1.267 . S
O253 C252 1.203 . S
O254 C247 1.185 . S
O254 Zn250 2.086 . S
C255 O251 1.294 . S
C255 O256 1.211 . S
O256 C255 1.211 . S
C257 O249 1.284 . S
C257 O258 1.273 . S
O258 C257 1.273 . S
O259 Zn250 1.977 . S
O259 C252 1.267 . S
C260 O261 1.160 . S
C260 O267 1.185 1_554 S
O261 C260 1.160 . S
O262 Zn263 1.899 . S
O262 C270 1.284 . S
Zn263 O262 1.899 . S
Zn263 O264 2.032 1_554 S
Zn263 O267 2.086 1_554 S
Zn263 O272 1.977 1_554 S
O264 Zn263 2.032 1_556 S
O264 C268 1.278 . S
C265 O266 1.203 . S
C265 O272 1.267 1_554 S
O266 C265 1.203 . S
O267 C260 1.185 1_556 S
O267 Zn263 2.086 1_556 S
C268 O264 1.278 . S
C268 O269 1.211 . S
O269 C268 1.211 . S
C270 O262 1.284 . S
C270 O271 1.273 . S
O271 C270 1.273 . S
O272 Zn263 1.977 1_556 S
O272 C265 1.267 1_556 S
C273 O274 1.160 . S
C273 O280 1.185 . S
O274 C273 1.160 . S
O275 Zn276 1.899 . S
O275 C283 1.284 . S
Zn276 O275 1.899 . S
Zn276 O277 2.032 . S
Zn276 O280 2.086 . S
Zn276 O285 1.977 . S
O277 Zn276 2.032 . S
O277 C281 1.278 . S
C278 O279 1.203 . S
C278 O285 1.267 . S
O279 C278 1.203 . S
O280 C273 1.185 . S
O280 Zn276 2.086 . S
C281 O277 1.278 . S
C281 O282 1.211 . S
O282 C281 1.211 . S
C283 O275 1.284 . S
C283 O284 1.273 . S
O284 C283 1.273 . S
O285 Zn276 1.977 . S
O285 C278 1.267 . S
C286 O287 1.160 . S
C286 O293 1.185 . S
O287 C286 1.160 . S
O288 Zn289 1.899 . S
O288 C296 1.284 . S
Zn289 O288 1.899 . S
Zn289 O290 2.032 . S
Zn289 O293 2.086 . S
Zn289 O298 1.977 . S
O290 Zn289 2.032 . S
O290 C294 1.278 . S
C291 O292 1.203 . S
C291 O298 1.267 . S
O292 C291 1.203 . S
O293 C286 1.185 . S
O293 Zn289 2.086 . S
C294 O290 1.278 . S
C294 O295 1.211 . S
O295 C294 1.211 . S
C296 O288 1.284 . S
C296 O297 1.273 . S
O297 C296 1.273 . S
O298 Zn289 1.977 . S
O298 C291 1.267 . S
C299 O300 1.160 . S
C299 O306 1.185 . S
O300 C299 1.160 . S
O301 Zn302 1.899 . S
O301 C309 1.284 . S
Zn302 O301 1.899 . S
Zn302 O303 2.032 . S
Zn302 O306 2.086 . S
Zn302 O311 1.977 . S
O303 Zn302 2.032 . S
O303 C307 1.278 . S
C304 O305 1.203 . S
C304 O311 1.267 . S
O305 C304 1.203 . S
O306 C299 1.185 . S
O306 Zn302 2.086 . S
C307 O303 1.278 . S
C307 O308 1.211 . S
O308 C307 1.211 . S
C309 O301 1.284 . S
C309 O310 1.273 . S
O310 C309 1.273 . S
O311 Zn302 1.977 . S
O311 C304 1.267 . S
C312 O328 1.222 1_456 S
C312 O330 1.254 . S
N313 C314 1.333 1_565 S
N313 C318 1.307 . S
N313 Zn319 2.020 1_665 S
C314 N313 1.333 1_545 S
C314 C315 1.379 . S
C314 H332 0.952 . S
C315 C314 1.379 . S
C315 C316 1.390 1_545 S
C315 H342 0.949 . S
C316 C315 1.390 1_565 S
C316 C317 1.357 . S
C317 C316 1.357 . S
C317 C318 1.370 . S
C317 H343 0.950 . S
C318 N313 1.307 . S
C318 C317 1.370 . S
C318 H336 0.948 . S
Zn319 N313 2.020 1_445 S
Zn319 O328 2.032 1_455 S
Zn319 O334 2.034 . S
Zn319 O338 2.025 1_545 S
Zn319 O340 2.024 1_545 S
C320 O339 1.246 . S
C320 O340 1.249 . S
N321 C322 1.307 1_554 S
N321 C323 1.333 . S
N321 Zn327 2.020 . S
C322 N321 1.307 1_556 S
C322 C326 1.370 . S
C322 H333 0.948 . S
C323 N321 1.333 . S
C323 C324 1.379 . S
C323 H331 0.952 . S
C324 C323 1.379 . S
C324 C325 1.390 . S
C324 H344 0.949 . S
C325 C324 1.390 . S
C325 C326 1.357 1_554 S
C326 C322 1.370 . S
C326 C325 1.357 1_556 S
C326 H345 0.950 . S
Zn327 N321 2.020 . S
Zn327 O330 2.025 1_554 S
Zn327 O335 2.024 . S
Zn327 O337 2.039 . S
Zn327 O339 2.034 1_545 S
O328 C312 1.222 1_654 S
O328 Zn319 2.032 1_655 S
C329 O334 1.246 . S
C329 O335 1.249 . S
O330 C312 1.254 . S
O330 Zn327 2.025 1_556 S
H331 C323 0.952 . S
H332 C314 0.952 . S
H333 C322 0.948 . S
O334 Zn319 2.034 . S
O334 C329 1.246 . S
O335 Zn327 2.024 . S
O335 C329 1.249 . S
H336 C318 0.948 . S
O337 Zn327 2.039 . S
O337 C341 1.255 . S
O338 Zn319 2.025 1_565 S
O338 C341 1.252 1_565 S
O339 C320 1.246 . S
O339 Zn327 2.034 1_565 S
O340 Zn319 2.024 1_565 S
O340 C320 1.249 . S
C341 O337 1.255 . S
C341 O338 1.252 1_545 S
H342 C315 0.949 . S
H343 C317 0.950 . S
H344 C324 0.949 . S
H345 C326 0.950 . S
C346 O362 1.251 . S
C346 O364 1.254 . S
N347 C348 1.333 . S
N347 C352 1.307 . S
N347 Zn353 2.020 . S
C348 N347 1.333 . S
C348 C349 1.379 . S
C348 H366 0.952 . S
C349 C348 1.379 . S
C349 C350 1.390 . S
C349 H376 0.949 . S
C350 C349 1.390 . S
C350 C351 1.357 . S
C351 C350 1.357 . S
C351 C352 1.370 . S
C351 H377 0.950 . S
C352 N347 1.307 . S
C352 C351 1.370 . S
C352 H370 0.948 . S
Zn353 N347 2.020 . S
Zn353 O362 2.039 . S
Zn353 O368 2.034 . S
Zn353 O372 2.025 . S
Zn353 O374 2.024 . S
C354 O373 1.246 . S
C354 O374 1.249 . S
N355 C356 1.307 . S
N355 C357 1.333 . S
N355 Zn361 2.020 . S
C356 N355 1.307 . S
C356 C360 1.370 . S
C356 H367 0.948 . S
C357 N355 1.333 . S
C357 C358 1.379 . S
C357 H365 0.952 . S
C358 C357 1.379 . S
C358 C359 1.390 . S
C358 H378 0.949 . S
C359 C358 1.390 . S
C359 C360 1.357 . S
C360 C356 1.370 . S
C360 C359 1.357 . S
C360 H379 0.950 . S
Zn361 N355 2.020 . S
Zn361 O364 2.025 . S
Zn361 O369 2.024 . S
Zn361 O371 2.039 . S
Zn361 O373 2.034 . S
O362 C346 1.251 . S
O362 Zn353 2.039 . S
C363 O368 1.246 . S
C363 O369 1.249 . S
O364 C346 1.254 . S
O364 Zn361 2.025 . S
H365 C357 0.952 . S
H366 C348 0.952 . S
H367 C356 0.948 . S
O368 Zn353 2.034 . S
O368 C363 1.246 . S
O369 Zn361 2.024 . S
O369 C363 1.249 . S
H370 C352 0.948 . S
O371 Zn361 2.039 . S
O371 C375 1.251 . S
O372 Zn353 2.025 . S
O372 C375 1.254 . S
O373 C354 1.246 . S
O373 Zn361 2.034 . S
O374 Zn353 2.024 . S
O374 C354 1.249 . S
C375 O371 1.251 . S
C375 O372 1.254 . S
H376 C349 0.949 . S
H377 C351 0.950 . S
H378 C358 0.949 . S
H379 C360 0.950 . S
C380 O396 1.281 . S
C380 O398 1.254 . S
N381 C382 1.333 . S
N381 C386 1.307 . S
N381 Zn387 2.020 . S
C382 N381 1.333 . S
C382 C383 1.379 . S
C382 H400 0.952 . S
C383 C382 1.379 . S
C383 C384 1.390 . S
C383 H410 0.949 . S
C384 C383 1.390 . S
C384 C385 1.357 . S
C385 C384 1.357 . S
C385 C386 1.370 . S
C385 H411 0.950 . S
C386 N381 1.307 . S
C386 C385 1.370 . S
C386 H404 0.948 . S
Zn387 N381 2.020 . S
Zn387 O396 2.027 1_565 S
Zn387 O402 2.034 1_565 S
Zn387 O406 2.025 . S
Zn387 O408 2.024 . S
C388 O407 1.246 1_565 S
C388 O408 1.249 . S
N389 C390 1.307 . S
N389 C391 1.333 . S
N389 Zn395 2.020 . S
C390 N389 1.307 . S
C390 C394 1.370 . S
C390 H401 0.948 . S
C391 N389 1.333 . S
C391 C392 1.379 . S
C391 H399 0.952 . S
C392 C391 1.379 . S
C392 C393 1.390 . S
C392 H412 0.949 . S
C393 C392 1.390 . S
C393 C394 1.357 . S
C394 C390 1.370 . S
C394 C393 1.357 . S
C394 H413 0.950 . S
Zn395 N389 2.020 . S
Zn395 O398 2.025 . S
Zn395 O403 2.024 . S
Zn395 O405 2.039 . S
Zn395 O407 2.034 . S
O396 C380 1.281 . S
O396 Zn387 2.027 1_545 S
C397 O402 1.246 . S
C397 O403 1.249 . S
O398 C380 1.254 . S
O398 Zn395 2.025 . S
H399 C391 0.952 . S
H400 C382 0.952 . S
H401 C390 0.948 . S
O402 Zn387 2.034 1_545 S
O402 C397 1.246 . S
O403 Zn395 2.024 . S
O403 C397 1.249 . S
H404 C386 0.948 . S
O405 Zn395 2.039 . S
O405 C409 1.251 . S
O406 Zn387 2.025 . S
O406 C409 1.254 1_565 S
O407 C388 1.246 1_545 S
O407 Zn395 2.034 . S
O408 Zn387 2.024 . S
O408 C388 1.249 . S
C409 O405 1.251 . S
C409 O406 1.254 1_545 S
H410 C383 0.949 . S
H411 C385 0.950 . S
H412 C392 0.949 . S
H413 C394 0.950 . S
C414 O430 1.251 . S
C414 O432 1.254 . S
N415 C416 1.333 . S
N415 C420 1.307 . S
N415 Zn421 2.020 . S
C416 N415 1.333 . S
C416 C417 1.379 . S
C416 H434 0.952 . S
C417 C416 1.379 . S
C417 C418 1.390 . S
C417 H444 0.949 . S
C418 C417 1.390 . S
C418 C419 1.357 . S
C419 C418 1.357 . S
C419 C420 1.370 . S
C419 H445 0.950 . S
C420 N415 1.307 . S
C420 C419 1.370 . S
C420 H438 0.948 . S
Zn421 N415 2.020 . S
Zn421 O430 2.039 . S
Zn421 O436 2.034 . S
Zn421 O440 2.025 . S
Zn421 O442 2.024 . S
C422 O441 1.246 . S
C422 O442 1.249 . S
N423 C424 1.307 . S
N423 C425 1.333 . S
N423 Zn429 2.020 . S
C424 N423 1.307 . S
C424 C428 1.370 . S
C424 H435 0.948 . S
C425 N423 1.333 . S
C425 C426 1.379 . S
C425 H433 0.952 . S
C426 C425 1.379 . S
C426 C427 1.390 . S
C426 H446 0.949 . S
C427 C426 1.390 . S
C427 C428 1.357 . S
C428 C424 1.370 . S
C428 C427 1.357 . S
C428 H447 0.950 . S
Zn429 N423 2.020 . S
Zn429 O432 2.025 . S
Zn429 O437 2.024 . S
Zn429 O439 2.039 . S
Zn429 O441 2.034 . S
O430 C414 1.251 . S
O430 Zn421 2.039 . S
C431 O436 1.246 . S
C431 O437 1.249 . S
O432 C414 1.254 . S
O432 Zn429 2.025 . S
H433 C425 0.952 . S
H434 C416 0.952 . S
H435 C424 0.948 . S
O436 Zn421 2.034 . S
O436 C431 1.246 . S
O437 Zn429 2.024 . S
O437 C431 1.249 . S
H438 C420 0.948 . S
O439 Zn429 2.039 . S
O439 C443 1.251 . S
O440 Zn421 2.025 . S
O440 C443 1.254 . S
O441 C422 1.246 . S
O441 Zn429 2.034 . S
O442 Zn421 2.024 . S
O442 C422 1.249 . S
C443 O439 1.251 . S
C443 O440 1.254 . S
H444 C417 0.949 . S
H445 C419 0.950 . S
H446 C426 0.949 . S
H447 C428 0.950 . S
C448 O464 1.251 1_565 S
C448 O466 1.254 . S
N449 C450 1.333 . S
N449 C454 1.307 . S
N449 Zn455 2.020 . S
C450 N449 1.333 . S
C450 C451 1.379 . S
C450 H468 0.952 . S
C451 C450 1.379 . S
C451 C452 1.390 . S
C451 H478 0.949 . S
C452 C451 1.390 . S
C452 C453 1.357 . S
C453 C452 1.357 . S
C453 C454 1.370 . S
C453 H479 0.950 . S
C454 N449 1.307 . S
C454 C453 1.370 . S
C454 H472 0.948 . S
Zn455 N449 2.020 . S
Zn455 O464 2.039 . S
Zn455 O470 2.034 . S
Zn455 O474 2.025 . S
Zn455 O476 2.024 1_545 S
C456 O475 1.246 . S
C456 O476 1.249 . S
N457 C458 1.307 . S
N457 C459 1.333 1_455 S
N457 Zn463 2.020 1_565 S
C458 N457 1.307 . S
C458 C462 1.370 . S
C458 H469 0.955 . S
C459 N457 1.333 1_655 S
C459 C460 1.379 . S
C459 H467 0.952 . S
C460 C459 1.379 . S
C460 C461 1.390 . S
C460 H480 0.949 . S
C461 C460 1.390 . S
C461 C462 1.357 1_655 S
C462 C458 1.370 . S
C462 C461 1.357 1_455 S
C462 H481 0.950 . S
Zn463 N457 2.020 1_545 S
Zn463 O466 2.025 1_545 S
Zn463 O471 2.024 . S
Zn463 O473 2.039 1_455 S
Zn463 O475 2.034 1_545 S
O464 C448 1.251 1_545 S
O464 Zn455 2.039 . S
C465 O470 1.246 . S
C465 O471 1.249 . S
O466 C448 1.254 . S
O466 Zn463 2.025 1_565 S
H467 C459 0.952 . S
H468 C450 0.952 . S
H469 C458 0.955 . S
O470 Zn455 2.034 . S
O470 C465 1.246 . S
O471 Zn463 2.024 . S
O471 C465 1.249 . S
H472 C454 0.948 . S
O473 Zn463 2.039 1_655 S
O473 C477 1.251 . S
O474 Zn455 2.025 . S
O474 C477 1.254 1_455 S
O475 C456 1.246 . S
O475 Zn463 2.034 1_565 S
O476 Zn455 2.024 1_565 S
O476 C456 1.249 . S
C477 O473 1.251 . S
C477 O474 1.254 1_655 S
H478 C451 0.949 . S
H479 C453 0.950 . S
H480 C460 0.949 . S
H481 C462 0.950 . S
C482 O498 1.251 . S
C482 O500 1.254 . S
N483 C484 1.333 . S
N483 C488 1.307 . S
N483 Zn489 2.020 . S
C484 N483 1.333 . S
C484 C485 1.379 . S
C484 H502 0.952 . S
C485 C484 1.379 . S
C485 C486 1.390 . S
C485 H512 0.949 . S
C486 C485 1.390 . S
C486 C487 1.357 . S
C487 C486 1.357 . S
C487 C488 1.370 . S
C487 H513 0.950 . S
C488 N483 1.307 . S
C488 C487 1.370 . S
C488 H506 0.948 . S
Zn489 N483 2.020 . S
Zn489 O498 2.039 . S
Zn489 O504 2.034 . S
Zn489 O508 2.025 . S
Zn489 O510 2.024 . S
C490 O509 1.246 . S
C490 O510 1.249 . S
N491 C492 1.307 . S
N491 C493 1.333 . S
N491 Zn497 2.020 . S
C492 N491 1.307 . S
C492 C496 1.370 . S
C492 H503 0.948 . S
C493 N491 1.333 . S
C493 C494 1.379 . S
C493 H501 0.952 . S
C494 C493 1.379 . S
C494 C495 1.390 . S
C494 H514 0.949 . S
C495 C494 1.390 . S
C495 C496 1.357 . S
C496 C492 1.370 . S
C496 C495 1.357 . S
C496 H515 0.950 . S
Zn497 N491 2.020 . S
Zn497 O500 2.025 . S
Zn497 O505 2.024 . S
Zn497 O507 2.039 . S
Zn497 O509 2.034 . S
O498 C482 1.251 . S
O498 Zn489 2.039 . S
C499 O504 1.246 . S
C499 O505 1.249 . S
O500 C482 1.254 . S
O500 Zn497 2.025 . S
H501 C493 0.952 . S
H502 C484 0.952 . S
H503 C492 0.948 . S
O504 Zn489 2.034 . S
O504 C499 1.246 . S
O505 Zn497 2.024 . S
O505 C499 1.249 . S
H506 C488 0.948 . S
O507 Zn497 2.039 . S
O507 C511 1.251 . S
O508 Zn489 2.025 . S
O508 C511 1.254 . S
O509 C490 1.246 . S
O509 Zn497 2.034 . S
O510 Zn489 2.024 . S
O510 C490 1.249 . S
C511 O507 1.251 . S
C511 O508 1.254 . S
H512 C485 0.949 . S
H513 C487 0.950 . S
H514 C494 0.949 . S
H515 C496 0.950 . S
C516 O532 1.251 . S
C516 O534 1.254 . S
N517 C518 1.333 . S
N517 C522 1.307 . S
N517 Zn523 2.020 . S
C518 N517 1.333 . S
C518 C519 1.379 . S
C518 H536 0.952 . S
C519 C518 1.379 . S
C519 C520 1.390 . S
C519 H546 0.949 . S
C520 C519 1.390 . S
C520 C521 1.357 . S
C521 C520 1.357 . S
C521 C522 1.370 . S
C521 H547 0.950 . S
C522 N517 1.307 . S
C522 C521 1.370 . S
C522 H540 0.948 . S
Zn523 N517 2.020 . S
Zn523 O532 2.039 1_545 S
Zn523 O538 2.034 . S
Zn523 O542 2.025 . S
Zn523 O544 2.024 . S
C524 O543 1.246 . S
C524 O544 1.249 1_565 S
N525 C526 1.307 . S
N525 C527 1.333 1_565 S
N525 Zn531 2.020 1_566 S
C526 N525 1.307 . S
C526 C530 1.370 . S
C526 H537 0.948 . S
C527 N525 1.333 1_545 S
C527 C528 1.379 . S
C527 H535 0.952 . S
C528 C527 1.379 . S
C528 C529 1.390 1_545 S
C528 H548 0.949 . S
C529 C528 1.390 1_565 S
C529 C530 1.357 . S
C530 C526 1.370 . S
C530 C529 1.357 . S
C530 H549 0.950 . S
Zn531 N525 2.020 1_544 S
Zn531 O534 2.025 1_545 S
Zn531 O539 2.024 . S
Zn531 O541 2.039 1_554 S
Zn531 O543 2.034 1_545 S
O532 C516 1.251 . S
O532 Zn523 2.039 1_565 S
C533 O538 1.246 . S
C533 O539 1.249 . S
O534 C516 1.254 . S
O534 Zn531 2.025 1_565 S
H535 C527 0.952 . S
H536 C518 0.952 . S
H537 C526 0.948 . S
O538 Zn523 2.034 . S
O538 C533 1.246 . S
O539 Zn531 2.024 . S
O539 C533 1.249 . S
H540 C522 0.948 . S
O541 Zn531 2.039 1_556 S
O541 C545 1.251 1_556 S
O542 Zn523 2.025 . S
O542 C545 1.254 . S
O543 C524 1.246 . S
O543 Zn531 2.034 1_565 S
O544 Zn523 2.024 . S
O544 C524 1.249 1_545 S
C545 O541 1.251 1_554 S
C545 O542 1.254 . S
H546 C519 0.949 . S
H547 C521 0.950 . S
H548 C528 0.949 . S
H549 C530 0.950 . S
C550 O566 1.251 . S
C550 O568 1.254 . S
N551 C552 1.333 . S
N551 C556 1.307 . S
N551 Zn557 2.020 . S
C552 N551 1.333 . S
C552 C553 1.379 . S
C552 H570 0.952 . S
C553 C552 1.379 . S
C553 C554 1.390 . S
C553 H580 0.949 . S
C554 C553 1.390 . S
C554 C555 1.357 . S
C555 C554 1.357 . S
C555 C556 1.370 . S
C555 H581 0.950 . S
C556 N551 1.307 . S
C556 C555 1.370 . S
C556 H574 0.948 . S
Zn557 N551 2.020 . S
Zn557 O566 2.039 . S
Zn557 O572 2.034 . S
Zn557 O576 2.025 . S
Zn557 O578 2.024 . S
C558 O577 1.246 . S
C558 O578 1.249 . S
N559 C560 1.307 . S
N559 C561 1.333 . S
N559 Zn565 2.020 . S
C560 N559 1.307 . S
C560 C564 1.370 . S
C560 H571 0.948 . S
C561 N559 1.333 . S
C561 C562 1.379 . S
C561 H569 0.952 . S
C562 C561 1.379 . S
C562 C563 1.390 . S
C562 H582 0.949 . S
C563 C562 1.390 . S
C563 C564 1.357 . S
C564 C560 1.370 . S
C564 C563 1.357 . S
C564 H583 0.950 . S
Zn565 N559 2.020 . S
Zn565 O568 2.025 . S
Zn565 O573 2.024 . S
Zn565 O575 2.039 . S
Zn565 O577 2.034 . S
O566 C550 1.251 . S
O566 Zn557 2.039 . S
C567 O572 1.246 . S
C567 O573 1.249 . S
O568 C550 1.254 . S
O568 Zn565 2.025 . S
H569 C561 0.952 . S
H570 C552 0.952 . S
H571 C560 0.948 . S
O572 Zn557 2.034 . S
O572 C567 1.246 . S
O573 Zn565 2.024 . S
O573 C567 1.249 . S
H574 C556 0.948 . S
O575 Zn565 2.039 . S
O575 C579 1.251 . S
O576 Zn557 2.025 . S
O576 C579 1.254 . S
O577 C558 1.246 . S
O577 Zn565 2.034 . S
O578 Zn557 2.024 . S
O578 C558 1.249 . S
C579 O575 1.251 . S
C579 O576 1.254 . S
H580 C553 0.949 . S
H581 C555 0.950 . S
H582 C562 0.949 . S
H583 C564 0.950 . S
C584 O600 1.251 . S
C584 O602 1.254 . S
N585 C586 1.333 . S
N585 C590 1.307 . S
N585 Zn591 2.020 1_556 S
C586 N585 1.333 . S
C586 C587 1.379 . S
C586 H604 0.952 . S
C587 C586 1.379 . S
C587 C588 1.390 . S
C587 H614 0.949 . S
C588 C587 1.390 . S
C588 C589 1.357 . S
C589 C588 1.357 . S
C589 C590 1.370 . S
C589 H615 0.950 . S
C590 N585 1.307 . S
C590 C589 1.370 . S
C590 H608 0.948 . S
Zn591 N585 2.020 1_554 S
Zn591 O600 2.039 . S
Zn591 O606 2.034 . S
Zn591 O610 2.025 1_554 S
Zn591 O612 2.024 1_554 S
C592 O611 1.246 . S
C592 O612 1.249 1_554 S
N593 C594 1.307 . S
N593 C595 1.333 . S
N593 Zn599 2.020 . S
C594 N593 1.307 . S
C594 C598 1.370 . S
C594 H605 0.948 . S
C595 N593 1.333 . S
C595 C596 1.379 . S
C595 H603 0.952 . S
C596 C595 1.379 . S
C596 C597 1.390 . S
C596 H616 0.949 . S
C597 C596 1.390 . S
C597 C598 1.357 . S
C598 C594 1.370 . S
C598 C597 1.357 . S
C598 H617 0.950 . S
Zn599 N593 2.020 . S
Zn599 O602 2.025 . S
Zn599 O607 2.024 . S
Zn599 O609 2.039 . S
Zn599 O611 2.034 . S
O600 C584 1.251 . S
O600 Zn591 2.039 . S
C601 O606 1.246 . S
C601 O607 1.249 . S
O602 C584 1.254 . S
O602 Zn599 2.025 . S
H603 C595 0.952 . S
H604 C586 0.952 . S
H605 C594 0.948 . S
O606 Zn591 2.034 . S
O606 C601 1.246 . S
O607 Zn599 2.024 . S
O607 C601 1.249 . S
H608 C590 0.948 . S
O609 Zn599 2.039 . S
O609 C613 1.251 . S
O610 Zn591 2.025 1_556 S
O610 C613 1.254 1_556 S
O611 C592 1.246 . S
O611 Zn599 2.034 . S
O612 Zn591 2.024 1_556 S
O612 C592 1.249 1_556 S
C613 O609 1.251 . S
C613 O610 1.254 1_554 S
H614 C587 0.949 . S
H615 C589 0.950 . S
H616 C596 0.949 . S
H617 C598 0.950 . S
C618 O634 1.251 . S
C618 O636 1.254 . S
N619 C620 1.333 . S
N619 C624 1.307 . S
N619 Zn625 2.020 . S
C620 N619 1.333 . S
C620 C621 1.379 . S
C620 H638 0.952 . S
C621 C620 1.379 . S
C621 C622 1.390 . S
C621 H648 0.949 . S
C622 C621 1.390 . S
C622 C623 1.357 . S
C623 C622 1.357 . S
C623 C624 1.370 . S
C623 H649 0.950 . S
C624 N619 1.307 . S
C624 C623 1.370 . S
C624 H642 0.948 . S
Zn625 N619 2.020 . S
Zn625 O634 2.039 . S
Zn625 O640 2.034 . S
Zn625 O644 2.025 . S
Zn625 O646 2.024 . S
C626 O645 1.246 . S
C626 O646 1.249 . S
N627 C628 1.307 . S
N627 C629 1.333 . S
N627 Zn633 2.020 . S
C628 N627 1.307 . S
C628 C632 1.370 . S
C628 H639 0.948 . S
C629 N627 1.333 . S
C629 C630 1.379 . S
C629 H637 0.952 . S
C630 C629 1.379 . S
C630 C631 1.390 . S
C630 H650 0.949 . S
C631 C630 1.390 . S
C631 C632 1.357 . S
C632 C628 1.370 . S
C632 C631 1.357 . S
C632 H651 0.950 . S
Zn633 N627 2.020 . S
Zn633 O636 2.025 . S
Zn633 O641 2.024 . S
Zn633 O643 2.039 . S
Zn633 O645 2.034 . S
O634 C618 1.251 . S
O634 Zn625 2.039 . S
C635 O640 1.246 . S
C635 O641 1.249 . S
O636 C618 1.254 . S
O636 Zn633 2.025 . S
H637 C629 0.952 . S
H638 C620 0.952 . S
H639 C628 0.948 . S
O640 Zn625 2.034 . S
O640 C635 1.246 . S
O641 Zn633 2.024 . S
O641 C635 1.249 . S
H642 C624 0.948 . S
O643 Zn633 2.039 . S
O643 C647 1.251 . S
O644 Zn625 2.025 . S
O644 C647 1.254 . S
O645 C626 1.246 . S
O645 Zn633 2.034 . S
O646 Zn625 2.024 . S
O646 C626 1.249 . S
C647 O643 1.251 . S
C647 O644 1.254 . S
H648 C621 0.949 . S
H649 C623 0.950 . S
H650 C630 0.949 . S
H651 C632 0.950 . S
C652 O668 1.251 . S
C652 O670 1.254 . S
N653 C654 1.333 . S
N653 C658 1.307 . S
N653 Zn659 2.020 . S
C654 N653 1.333 . S
C654 C655 1.379 . S
C654 H672 0.952 . S
C655 C654 1.379 . S
C655 C656 1.390 . S
C655 H682 0.949 . S
C656 C655 1.390 . S
C656 C657 1.357 . S
C657 C656 1.357 . S
C657 C658 1.370 . S
C657 H683 0.950 . S
C658 N653 1.307 . S
C658 C657 1.370 . S
C658 H676 0.948 . S
Zn659 N653 2.020 . S
Zn659 O668 2.039 . S
Zn659 O674 2.034 . S
Zn659 O678 2.025 . S
Zn659 O680 2.024 . S
C660 O679 1.246 . S
C660 O680 1.249 . S
N661 C662 1.307 1_455 S
N661 C663 1.333 . S
N661 Zn667 2.020 . S
C662 N661 1.307 1_655 S
C662 C666 1.370 . S
C662 H673 0.948 . S
C663 N661 1.333 . S
C663 C664 1.379 . S
C663 H671 0.952 . S
C664 C663 1.379 . S
C664 C665 1.390 1_455 S
C664 H684 0.949 . S
C665 C664 1.390 1_655 S
C665 C666 1.357 . S
C666 C662 1.370 . S
C666 C665 1.357 . S
C666 H685 0.950 . S
Zn667 N661 2.020 . S
Zn667 O670 2.025 . S
Zn667 O675 2.024 1_455 S
Zn667 O677 2.039 . S
Zn667 O679 2.034 . S
O668 C652 1.251 . S
O668 Zn659 2.039 . S
C669 O674 1.246 1_655 S
C669 O675 1.249 . S
O670 C652 1.254 . S
O670 Zn667 2.025 . S
H671 C663 0.952 . S
H672 C654 0.952 . S
H673 C662 0.948 . S
O674 Zn659 2.034 . S
O674 C669 1.246 1_455 S
O675 Zn667 2.024 1_655 S
O675 C669 1.249 . S
H676 C658 0.948 . S
O677 Zn667 2.039 . S
O677 C681 1.251 . S
O678 Zn659 2.025 . S
O678 C681 1.254 . S
O679 C660 1.246 . S
O679 Zn667 2.034 . S
O680 Zn659 2.024 . S
O680 C660 1.249 . S
C681 O677 1.251 . S
C681 O678 1.254 . S
H682 C655 0.949 . S
H683 C657 0.950 . S
H684 C664 0.949 . S
H685 C666 0.950 . S
C686 O702 1.251 . S
C686 O704 1.254 . S
N687 C688 1.333 . S
N687 C692 1.307 . S
N687 Zn693 2.020 . S
C688 N687 1.333 . S
C688 C689 1.379 . S
C688 H706 0.952 . S
C689 C688 1.379 . S
C689 C690 1.390 . S
C689 H716 0.949 . S
C690 C689 1.390 . S
C690 C691 1.357 . S
C691 C690 1.357 . S
C691 C692 1.370 . S
C691 H717 0.950 . S
C692 N687 1.307 . S
C692 C691 1.370 . S
C692 H710 0.948 . S
Zn693 N687 2.020 . S
Zn693 O702 2.039 . S
Zn693 O708 2.034 . S
Zn693 O712 2.025 . S
Zn693 O714 2.024 . S
C694 O713 1.246 . S
C694 O714 1.249 . S
N695 C696 1.307 . S
N695 C697 1.333 . S
N695 Zn701 2.020 . S
C696 N695 1.307 . S
C696 C700 1.370 . S
C696 H707 0.948 . S
C697 N695 1.333 . S
C697 C698 1.379 . S
C697 H705 0.952 . S
C698 C697 1.379 . S
C698 C699 1.390 . S
C698 H718 0.949 . S
C699 C698 1.390 . S
C699 C700 1.357 . S
C700 C696 1.370 . S
C700 C699 1.357 . S
C700 H719 0.950 . S
Zn701 N695 2.020 . S
Zn701 O704 2.025 . S
Zn701 O709 2.024 . S
Zn701 O711 2.039 . S
Zn701 O713 2.034 . S
O702 C686 1.251 . S
O702 Zn693 2.039 . S
C703 O708 1.246 . S
C703 O709 1.249 . S
O704 C686 1.254 . S
O704 Zn701 2.025 . S
H705 C697 0.952 . S
H706 C688 0.952 . S
H707 C696 0.948 . S
O708 Zn693 2.034 . S
O708 C703 1.246 . S
O709 Zn701 2.024 . S
O709 C703 1.249 . S
H710 C692 0.948 . S
O711 Zn701 2.039 . S
O711 C715 1.251 . S
O712 Zn693 2.025 . S
O712 C715 1.254 . S
O713 C694 1.246 . S
O713 Zn701 2.034 . S
O714 Zn693 2.024 . S
O714 C694 1.249 . S
C715 O711 1.251 . S
C715 O712 1.254 . S
H716 C689 0.949 . S
H717 C691 0.950 . S
H718 C698 0.949 . S
H719 C700 0.950 . S
C720 O736 1.251 . S
C720 O738 1.254 . S
N721 C722 1.333 . S
N721 C726 1.307 . S
N721 Zn727 2.020 . S
C722 N721 1.333 . S
C722 C723 1.379 . S
C722 H740 0.952 . S
C723 C722 1.379 . S
C723 C724 1.390 . S
C723 H750 0.949 . S
C724 C723 1.390 . S
C724 C725 1.357 . S
C725 C724 1.357 . S
C725 C726 1.370 . S
C725 H751 0.950 . S
C726 N721 1.307 . S
C726 C725 1.370 . S
C726 H744 0.948 . S
Zn727 N721 2.020 . S
Zn727 O736 2.039 . S
Zn727 O742 2.034 . S
Zn727 O746 2.025 . S
Zn727 O748 2.024 . S
C728 O747 1.246 . S
C728 O748 1.249 . S
N729 C730 1.307 . S
N729 C731 1.333 . S
N729 Zn735 2.020 . S
C730 N729 1.307 . S
C730 C734 1.370 . S
C730 H741 0.948 . S
C731 N729 1.333 . S
C731 C732 1.379 . S
C731 H739 0.952 . S
C732 C731 1.379 . S
C732 C733 1.390 . S
C732 H752 0.949 . S
C733 C732 1.390 . S
C733 C734 1.357 . S
C734 C730 1.370 . S
C734 C733 1.357 . S
C734 H753 0.950 . S
Zn735 N729 2.020 . S
Zn735 O738 2.025 . S
Zn735 O743 2.024 . S
Zn735 O745 2.039 . S
Zn735 O747 2.034 . S
O736 C720 1.251 . S
O736 Zn727 2.039 . S
C737 O742 1.246 . S
C737 O743 1.249 . S
O738 C720 1.254 . S
O738 Zn735 2.025 . S
H739 C731 0.952 . S
H740 C722 0.952 . S
H741 C730 0.948 . S
O742 Zn727 2.034 . S
O742 C737 1.246 . S
O743 Zn735 2.024 . S
O743 C737 1.249 . S
H744 C726 0.948 . S
O745 Zn735 2.039 . S
O745 C749 1.251 . S
O746 Zn727 2.025 . S
O746 C749 1.254 . S
O747 C728 1.246 . S
O747 Zn735 2.034 . S
O748 Zn727 2.024 . S
O748 C728 1.249 . S
C749 O745 1.251 . S
C749 O746 1.254 . S
H750 C723 0.949 . S
H751 C725 0.950 . S
H752 C732 0.949 . S
H753 C734 0.950 . S
C754 O770 1.251 . S
C754 O772 1.254 . S
N755 C756 1.333 . S
N755 C760 1.307 . S
N755 Zn761 2.020 . S
C756 N755 1.333 . S
C756 C757 1.379 . S
C756 H774 0.952 . S
C757 C756 1.379 . S
C757 C758 1.390 . S
C757 H784 0.949 . S
C758 C757 1.390 . S
C758 C759 1.357 . S
C759 C758 1.357 . S
C759 C760 1.370 . S
C759 H785 0.950 . S
C760 N755 1.307 . S
C760 C759 1.370 . S
C760 H778 0.948 . S
Zn761 N755 2.020 . S
Zn761 O770 2.039 . S
Zn761 O776 2.034 . S
Zn761 O780 2.025 . S
Zn761 O782 2.024 . S
C762 O781 1.246 . S
C762 O782 1.249 . S
N763 C764 1.307 . S
N763 C765 1.333 . S
N763 Zn769 2.020 . S
C764 N763 1.307 . S
C764 C768 1.370 . S
C764 H775 0.948 . S
C765 N763 1.333 . S
C765 C766 1.379 . S
C765 H773 0.952 . S
C766 C765 1.379 . S
C766 C767 1.390 . S
C766 H786 0.949 . S
C767 C766 1.390 . S
C767 C768 1.357 . S
C768 C764 1.370 . S
C768 C767 1.357 . S
C768 H787 0.950 . S
Zn769 N763 2.020 . S
Zn769 O772 2.025 . S
Zn769 O777 2.024 . S
Zn769 O779 2.039 . S
Zn769 O781 2.034 . S
O770 C754 1.251 . S
O770 Zn761 2.039 . S
C771 O776 1.246 . S
C771 O777 1.249 . S
O772 C754 1.254 . S
O772 Zn769 2.025 . S
H773 C765 0.952 . S
H774 C756 0.952 . S
H775 C764 0.948 . S
O776 Zn761 2.034 . S
O776 C771 1.246 . S
O777 Zn769 2.024 . S
O777 C771 1.249 . S
H778 C760 0.948 . S
O779 Zn769 2.039 . S
O779 C783 1.251 . S
O780 Zn761 2.025 . S
O780 C783 1.254 . S
O781 C762 1.246 . S
O781 Zn769 2.034 . S
O782 Zn761 2.024 . S
O782 C762 1.249 . S
C783 O779 1.251 . S
C783 O780 1.254 . S
H784 C757 0.949 . S
H785 C759 0.950 . S
H786 C766 0.949 . S
H787 C768 0.950 . S
C788 O804 1.251 . S
C788 O806 1.254 . S
N789 C790 1.333 . S
N789 C794 1.307 . S
N789 Zn795 2.020 . S
C790 N789 1.333 . S
C790 C791 1.379 . S
C790 H808 0.952 . S
C791 C790 1.379 . S
C791 C792 1.390 . S
C791 H818 0.949 . S
C792 C791 1.390 . S
C792 C793 1.357 . S
C793 C792 1.357 . S
C793 C794 1.370 . S
C793 H819 0.950 . S
C794 N789 1.307 . S
C794 C793 1.370 . S
C794 H812 0.948 . S
Zn795 N789 2.020 . S
Zn795 O804 2.039 . S
Zn795 O810 2.034 . S
Zn795 O814 2.025 . S
Zn795 O816 2.024 . S
C796 O815 1.246 . S
C796 O816 1.249 . S
N797 C798 1.307 . S
N797 C799 1.333 . S
N797 Zn803 2.020 . S
C798 N797 1.307 . S
C798 C802 1.370 . S
C798 H809 0.948 . S
C799 N797 1.333 . S
C799 C800 1.379 . S
C799 H807 0.952 . S
C800 C799 1.379 . S
C800 C801 1.390 . S
C800 H820 0.949 . S
C801 C800 1.390 . S
C801 C802 1.357 . S
C802 C798 1.370 . S
C802 C801 1.357 . S
C802 H821 0.950 . S
Zn803 N797 2.020 . S
Zn803 O806 2.025 . S
Zn803 O811 2.024 . S
Zn803 O813 2.039 . S
Zn803 O815 2.034 . S
O804 C788 1.251 . S
O804 Zn795 2.039 . S
C805 O810 1.246 . S
C805 O811 1.249 . S
O806 C788 1.254 . S
O806 Zn803 2.025 . S
H807 C799 0.952 . S
H808 C790 0.952 . S
H809 C798 0.948 . S
O810 Zn795 2.034 . S
O810 C805 1.246 . S
O811 Zn803 2.024 . S
O811 C805 1.249 . S
H812 C794 0.948 . S
O813 Zn803 2.039 . S
O813 C817 1.251 . S
O814 Zn795 2.025 . S
O814 C817 1.254 . S
O815 C796 1.246 . S
O815 Zn803 2.034 . S
O816 Zn795 2.024 . S
O816 C796 1.249 . S
C817 O813 1.251 . S
C817 O814 1.254 . S
H818 C791 0.949 . S
H819 C793 0.950 . S
H820 C800 0.949 . S
H821 C802 0.950 . S
C822 O838 1.251 . S
C822 O840 1.254 . S
N823 C824 1.333 . S
N823 C828 1.307 . S
N823 Zn829 2.020 . S
C824 N823 1.333 . S
C824 C825 1.379 . S
C824 H842 0.952 . S
C825 C824 1.379 . S
C825 C826 1.390 . S
C825 H852 0.949 . S
C826 C825 1.390 . S
C826 C827 1.357 . S
C827 C826 1.357 . S
C827 C828 1.370 . S
C827 H853 0.950 . S
C828 N823 1.307 . S
C828 C827 1.370 . S
C828 H846 0.948 . S
Zn829 N823 2.020 . S
Zn829 O838 2.039 . S
Zn829 O844 2.034 . S
Zn829 O848 2.025 . S
Zn829 O850 2.024 . S
C830 O849 1.246 . S
C830 O850 1.249 1_655 S
N831 C832 1.307 . S
N831 C833 1.333 1_554 S
N831 Zn837 2.020 . S
C832 N831 1.307 . S
C832 C836 1.370 . S
C832 H843 0.948 . S
C833 N831 1.333 1_556 S
C833 C834 1.378 1_455 S
C833 H841 0.952 . S
C834 C833 1.378 1_655 S
C834 C835 1.390 . S
C834 H854 0.950 . S
C835 C834 1.390 . S
C835 C836 1.357 1_656 S
C836 C832 1.370 . S
C836 C835 1.357 1_454 S
C836 H855 0.950 . S
Zn837 N831 2.020 . S
Zn837 O840 2.025 . S
Zn837 O845 2.024 . S
Zn837 O847 2.039 1_554 S
Zn837 O849 2.034 1_455 S
O838 C822 1.251 . S
O838 Zn829 2.039 . S
C839 O844 1.246 . S
C839 O845 1.249 . S
O840 C822 1.254 . S
O840 Zn837 2.025 . S
H841 C833 0.952 . S
H842 C824 0.952 . S
H843 C832 0.948 . S
O844 Zn829 2.034 . S
O844 C839 1.246 . S
O845 Zn837 2.024 . S
O845 C839 1.249 . S
H846 C828 0.948 . S
O847 Zn837 2.039 1_556 S
O847 C851 1.251 . S
O848 Zn829 2.025 . S
O848 C851 1.254 1_554 S
O849 C830 1.246 . S
O849 Zn837 2.034 1_655 S
O850 Zn829 2.024 . S
O850 C830 1.249 1_455 S
C851 O847 1.251 . S
C851 O848 1.254 1_556 S
H852 C825 0.949 . S
H853 C827 0.950 . S
H854 C834 0.950 . S
H855 C836 0.950 . S
H856 C862 0.930 . S
H857 C865 0.930 . S
H858 C866 0.930 . S
H859 C867 0.930 . S
H860 C870 0.930 . S
H861 C871 0.930 . S
C862 H856 0.930 . S
C862 C863 1.355 . S
C862 C864 1.415 . S
C863 C862 1.355 . S
C863 C865 1.419 . S
C864 C862 1.415 . S
C864 C869 1.425 . S
C864 C871 1.409 . S
C865 H857 0.930 . S
C865 C863 1.419 . S
C865 C866 1.362 . S
C866 H858 0.930 . S
C866 C865 1.362 . S
C866 C869 1.409 . S
C867 H859 0.930 . S
C867 C868 1.355 . S
C867 C869 1.415 . S
C868 C867 1.355 . S
C868 C870 1.419 . S
C869 C864 1.425 . S
C869 C866 1.409 . S
C869 C867 1.415 . S
C870 H860 0.930 . S
C870 C868 1.419 . S
C870 C871 1.362 . S
C871 H861 0.930 . S
C871 C864 1.409 . S
C871 C870 1.362 . S
H872 C878 0.930 . S
H873 C881 0.930 . S
H874 C882 0.930 . S
H875 C883 0.930 . S
H876 C886 0.930 . S
H877 C887 0.930 . S
C878 H872 0.930 . S
C878 C879 1.355 . S
C878 C880 1.415 . S
C879 C878 1.355 . S
C879 C881 1.419 . S
C880 C878 1.415 . S
C880 C885 1.425 . S
C880 C887 1.409 . S
C881 H873 0.930 . S
C881 C879 1.419 . S
C881 C882 1.362 . S
C882 H874 0.930 . S
C882 C881 1.362 . S
C882 C885 1.409 . S
C883 H875 0.930 . S
C883 C884 1.355 . S
C883 C885 1.415 . S
C884 C883 1.355 . S
C884 C886 1.419 . S
C885 C880 1.425 . S
C885 C882 1.409 . S
C885 C883 1.415 . S
C886 H876 0.930 . S
C886 C884 1.419 . S
C886 C887 1.362 . S
C887 H877 0.930 . S
C887 C880 1.409 . S
C887 C886 1.362 . S
H888 C894 0.930 . S
H889 C897 0.930 . S
H890 C898 0.930 . S
H891 C899 0.930 . S
H892 C902 0.930 . S
H893 C903 0.930 . S
C894 H888 0.930 . S
C894 C895 1.355 . S
C894 C896 1.415 . S
C895 C894 1.355 . S
C895 C897 1.419 . S
C896 C894 1.415 . S
C896 C901 1.425 . S
C896 C903 1.409 . S
C897 H889 0.930 . S
C897 C895 1.419 . S
C897 C898 1.362 . S
C898 H890 0.930 . S
C898 C897 1.362 . S
C898 C901 1.409 . S
C899 H891 0.930 . S
C899 C900 1.355 . S
C899 C901 1.415 . S
C900 C899 1.355 . S
C900 C902 1.419 . S
C901 C896 1.425 . S
C901 C898 1.409 . S
C901 C899 1.415 . S
C902 H892 0.930 . S
C902 C900 1.419 . S
C902 C903 1.362 . S
C903 H893 0.930 . S
C903 C896 1.409 . S
C903 C902 1.362 . S
H904 C910 0.930 . S
H905 C913 0.930 . S
H906 C914 0.930 . S
H907 C915 0.930 . S
H908 C918 0.930 . S
H909 C919 0.930 . S
C910 H904 0.930 . S
C910 C911 1.355 . S
C910 C912 1.415 . S
C911 C910 1.355 . S
C911 C913 1.419 . S
C912 C910 1.415 . S
C912 C917 1.425 . S
C912 C919 1.409 . S
C913 H905 0.930 . S
C913 C911 1.419 . S
C913 C914 1.362 . S
C914 H906 0.930 . S
C914 C913 1.362 . S
C914 C917 1.409 . S
C915 H907 0.930 . S
C915 C916 1.355 . S
C915 C917 1.415 . S
C916 C915 1.355 . S
C916 C918 1.419 . S
C917 C912 1.425 . S
C917 C914 1.409 . S
C917 C915 1.415 . S
C918 H908 0.930 . S
C918 C916 1.419 . S
C918 C919 1.362 . S
C919 H909 0.930 . S
C919 C912 1.409 . S
C919 C918 1.362 . S
H920 C926 0.930 . S
H921 C929 0.930 . S
H922 C930 0.930 . S
H923 C931 0.930 . S
H924 C934 0.930 . S
H925 C935 0.930 . S
C926 H920 0.930 . S
C926 C927 1.355 . S
C926 C928 1.415 . S
C927 C926 1.355 . S
C927 C929 1.419 . S
C928 C926 1.415 . S
C928 C933 1.425 . S
C928 C935 1.409 . S
C929 H921 0.930 . S
C929 C927 1.419 . S
C929 C930 1.362 . S
C930 H922 0.930 . S
C930 C929 1.362 . S
C930 C933 1.409 . S
C931 H923 0.930 . S
C931 C932 1.355 . S
C931 C933 1.415 . S
C932 C931 1.355 . S
C932 C934 1.419 . S
C933 C928 1.425 . S
C933 C930 1.409 . S
C933 C931 1.415 . S
C934 H924 0.930 . S
C934 C932 1.419 . S
C934 C935 1.362 . S
C935 H925 0.930 . S
C935 C928 1.409 . S
C935 C934 1.362 . S
H936 C942 0.930 . S
H937 C945 0.930 . S
H938 C946 0.930 . S
H939 C947 0.930 . S
H940 C950 0.930 . S
H941 C951 0.930 . S
C942 H936 0.930 . S
C942 C943 1.355 . S
C942 C944 1.415 . S
C943 C942 1.355 . S
C943 C945 1.419 . S
C944 C942 1.415 . S
C944 C949 1.425 . S
C944 C951 1.409 . S
C945 H937 0.930 . S
C945 C943 1.419 . S
C945 C946 1.362 . S
C946 H938 0.930 . S
C946 C945 1.362 . S
C946 C949 1.409 . S
C947 H939 0.930 . S
C947 C948 1.355 . S
C947 C949 1.415 . S
C948 C947 1.355 . S
C948 C950 1.419 . S
C949 C944 1.425 . S
C949 C946 1.409 . S
C949 C947 1.415 . S
C950 H940 0.930 . S
C950 C948 1.419 . S
C950 C951 1.362 . S
C951 H941 0.930 . S
C951 C944 1.409 . S
C951 C950 1.362 . S
H952 C958 0.930 . S
H953 C961 0.930 . S
H954 C962 0.930 1_554 S
H955 C963 0.957 . S
H956 C966 0.930 . S
H957 C967 0.930 . S
C958 H952 0.930 . S
C958 C959 1.355 . S
C958 C960 1.415 . S
C959 C958 1.355 . S
C959 C961 1.419 . S
C960 C958 1.415 . S
C960 C965 1.425 . S
C960 C967 1.409 . S
C961 H953 0.930 . S
C961 C959 1.419 . S
C961 C962 1.362 . S
C962 H954 0.930 1_556 S
C962 C961 1.362 . S
C962 C965 1.409 . S
C963 H955 0.957 . S
C963 C964 1.348 1_554 S
C963 C965 1.395 1_554 S
C964 C963 1.348 1_556 S
C964 C966 1.419 . S
C965 C960 1.425 . S
C965 C962 1.409 . S
C965 C963 1.395 1_556 S
C966 H956 0.930 . S
C966 C964 1.419 . S
C966 C967 1.362 . S
C967 H957 0.930 . S
C967 C960 1.409 . S
C967 C966 1.362 . S
H968 C974 0.930 . S
H969 C977 0.930 . S
H970 C978 0.930 . S
H971 C979 0.930 . S
H972 C982 0.930 . S
H973 C983 0.930 . S
C974 H968 0.930 . S
C974 C975 1.355 . S
C974 C976 1.415 . S
C975 C974 1.355 . S
C975 C977 1.419 . S
C976 C974 1.415 . S
C976 C981 1.425 . S
C976 C983 1.409 . S
C977 H969 0.930 . S
C977 C975 1.419 . S
C977 C978 1.362 . S
C978 H970 0.930 . S
C978 C977 1.362 . S
C978 C981 1.409 . S
C979 H971 0.930 . S
C979 C980 1.355 . S
C979 C981 1.415 . S
C980 C979 1.355 . S
C980 C982 1.419 . S
C981 C976 1.425 . S
C981 C978 1.409 . S
C981 C979 1.415 . S
C982 H972 0.930 . S
C982 C980 1.419 . S
C982 C983 1.362 . S
C983 H973 0.930 . S
C983 C976 1.409 . S
C983 C982 1.362 . S
H984 C990 0.930 . S
H985 C993 0.930 . S
H986 C994 0.930 . S
H987 C995 0.930 . S
H988 C998 0.930 . S
H989 C999 0.930 . S
C990 H984 0.930 . S
C990 C991 1.355 . S
C990 C992 1.415 . S
C991 C990 1.355 . S
C991 C993 1.419 . S
C992 C990 1.415 . S
C992 C997 1.425 . S
C992 C999 1.409 1_545 S
C993 H985 0.930 . S
C993 C991 1.419 . S
C993 C994 1.362 . S
C994 H986 0.930 . S
C994 C993 1.362 . S
C994 C997 1.409 . S
C995 H987 0.930 . S
C995 C996 1.348 1_545 S
C995 C997 1.415 . S
C996 C995 1.348 1_565 S
C996 C998 1.423 . S
C997 C992 1.425 . S
C997 C994 1.409 . S
C997 C995 1.415 . S
C998 H988 0.930 . S
C998 C996 1.423 . S
C998 C999 1.362 . S
C999 H989 0.930 . S
C999 C992 1.409 1_565 S
C999 C998 1.362 . S
H1000 C1006 0.930 . S
H1001 C1009 0.930 . S
H1002 C1010 0.930 . S
H1003 C1011 0.930 . S
H1004 C1014 0.930 . S
H1005 C1015 0.930 . S
C1006 H1000 0.930 . S
C1006 C1007 1.355 . S
C1006 C1008 1.415 . S
C1007 C1006 1.355 . S
C1007 C1009 1.419 . S
C1008 C1006 1.415 . S
C1008 C1013 1.425 . S
C1008 C1015 1.409 . S
C1009 H1001 0.930 . S
C1009 C1007 1.419 . S
C1009 C1010 1.362 . S
C1010 H1002 0.930 . S
C1010 C1009 1.362 . S
C1010 C1013 1.409 . S
C1011 H1003 0.930 . S
C1011 C1012 1.355 . S
C1011 C1013 1.415 . S
C1012 C1011 1.355 . S
C1012 C1014 1.419 . S
C1013 C1008 1.425 . S
C1013 C1010 1.409 . S
C1013 C1011 1.415 . S
C1014 H1004 0.930 . S
C1014 C1012 1.419 . S
C1014 C1015 1.362 . S
C1015 H1005 0.930 . S
C1015 C1008 1.409 . S
C1015 C1014 1.362 . S
H1016 C1022 0.930 1_565 S
H1017 C1025 0.930 . S
H1018 C1026 0.930 . S
H1019 C1027 0.930 . S
H1020 C1030 0.930 1_565 S
H1021 C1031 0.930 . S
C1022 H1016 0.930 1_545 S
C1022 C1023 1.355 . S
C1022 C1024 1.415 . S
C1023 C1022 1.355 . S
C1023 C1025 1.419 . S
C1024 C1022 1.415 . S
C1024 C1029 1.425 . S
C1024 C1031 1.409 1_545 S
C1025 H1017 0.930 . S
C1025 C1023 1.419 . S
C1025 C1026 1.362 . S
C1026 H1018 0.930 . S
C1026 C1025 1.362 . S
C1026 C1029 1.409 . S
C1027 H1019 0.930 . S
C1027 C1028 1.355 . S
C1027 C1029 1.415 . S
C1028 C1027 1.355 . S
C1028 C1030 1.419 . S
C1029 C1024 1.425 . S
C1029 C1026 1.409 . S
C1029 C1027 1.415 . S
C1030 H1020 0.930 1_545 S
C1030 C1028 1.419 . S
C1030 C1031 1.362 1_545 S
C1031 H1021 0.930 . S
C1031 C1024 1.409 1_565 S
C1031 C1030 1.362 1_565 S
H1032 C1038 0.930 . S
H1033 C1041 0.930 1_554 S
H1034 C1042 0.930 . S
H1035 C1043 0.930 . S
H1036 C1046 0.930 . S
H1037 C1047 0.930 . S
C1038 H1032 0.930 . S
C1038 C1039 1.355 . S
C1038 C1040 1.415 . S
C1039 C1038 1.355 . S
C1039 C1041 1.419 . S
C1040 C1038 1.415 . S
C1040 C1045 1.425 . S
C1040 C1047 1.409 . S
C1041 H1033 0.930 1_556 S
C1041 C1039 1.419 . S
C1041 C1042 1.362 . S
C1042 H1034 0.930 . S
C1042 C1041 1.362 . S
C1042 C1045 1.409 . S
C1043 H1035 0.930 . S
C1043 C1044 1.355 . S
C1043 C1045 1.415 . S
C1044 C1043 1.355 . S
C1044 C1046 1.419 . S
C1045 C1040 1.425 . S
C1045 C1042 1.409 . S
C1045 C1043 1.415 . S
C1046 H1036 0.930 . S
C1046 C1044 1.419 . S
C1046 C1047 1.362 . S
C1047 H1037 0.930 . S
C1047 C1040 1.409 . S
C1047 C1046 1.362 . S
H1048 C1054 0.930 . S
H1049 C1057 0.930 . S
H1050 C1058 0.930 . S
H1051 C1059 0.930 . S
H1052 C1062 0.930 . S
H1053 C1063 0.930 . S
C1054 H1048 0.930 . S
C1054 C1055 1.355 . S
C1054 C1056 1.415 . S
C1055 C1054 1.355 . S
C1055 C1057 1.419 . S
C1056 C1054 1.415 . S
C1056 C1061 1.425 . S
C1056 C1063 1.409 . S
C1057 H1049 0.930 . S
C1057 C1055 1.419 . S
C1057 C1058 1.362 . S
C1058 H1050 0.930 . S
C1058 C1057 1.362 . S
C1058 C1061 1.409 . S
C1059 H1051 0.930 . S
C1059 C1060 1.355 . S
C1059 C1061 1.415 . S
C1060 C1059 1.355 . S
C1060 C1062 1.419 . S
C1061 C1056 1.425 . S
C1061 C1058 1.409 . S
C1061 C1059 1.415 . S
C1062 H1052 0.930 . S
C1062 C1060 1.419 . S
C1062 C1063 1.362 . S
C1063 H1053 0.930 . S
C1063 C1056 1.409 . S
C1063 C1062 1.362 . S
H1064 C1070 0.930 . S
H1065 C1073 0.930 . S
H1066 C1074 0.930 . S
H1067 C1075 0.930 . S
H1068 C1078 0.930 . S
H1069 C1079 0.930 . S
C1070 H1064 0.930 . S
C1070 C1071 1.355 . S
C1070 C1072 1.415 . S
C1071 C1070 1.355 . S
C1071 C1073 1.419 . S
C1072 C1070 1.415 . S
C1072 C1077 1.425 . S
C1072 C1079 1.409 . S
C1073 H1065 0.930 . S
C1073 C1071 1.419 . S
C1073 C1074 1.362 . S
C1074 H1066 0.930 . S
C1074 C1073 1.362 . S
C1074 C1077 1.409 . S
C1075 H1067 0.930 . S
C1075 C1076 1.355 . S
C1075 C1077 1.415 . S
C1076 C1075 1.355 . S
C1076 C1078 1.419 . S
C1077 C1072 1.425 . S
C1077 C1074 1.409 . S
C1077 C1075 1.415 . S
C1078 H1068 0.930 . S
C1078 C1076 1.419 . S
C1078 C1079 1.362 . S
C1079 H1069 0.930 . S
C1079 C1072 1.409 . S
C1079 C1078 1.362 . S
H1080 C1086 0.930 . S
H1081 C1089 0.930 . S
H1082 C1090 0.930 . S
H1083 C1091 0.930 1_545 S
H1084 C1094 0.930 . S
H1085 C1095 0.930 . S
C1086 H1080 0.930 . S
C1086 C1087 1.355 1_565 S
C1086 C1088 1.415 . S
C1087 C1086 1.355 1_545 S
C1087 C1089 1.419 . S
C1088 C1086 1.415 . S
C1088 C1093 1.425 1_565 S
C1088 C1095 1.409 . S
C1089 H1081 0.930 . S
C1089 C1087 1.419 . S
C1089 C1090 1.362 . S
C1090 H1082 0.930 . S
C1090 C1089 1.362 . S
C1090 C1093 1.409 . S
C1091 H1083 0.930 1_565 S
C1091 C1092 1.355 . S
C1091 C1093 1.415 1_565 S
C1092 C1091 1.355 . S
C1092 C1094 1.419 . S
C1093 C1088 1.425 1_545 S
C1093 C1090 1.409 . S
C1093 C1091 1.415 1_545 S
C1094 H1084 0.930 . S
C1094 C1092 1.419 . S
C1094 C1095 1.362 . S
C1095 H1085 0.930 . S
C1095 C1088 1.409 . S
C1095 C1094 1.362 . S
H1096 C1102 0.930 . S
H1097 C1105 0.930 . S
H1098 C1106 0.930 . S
H1099 C1107 0.930 . S
H1100 C1110 0.930 . S
H1101 C1111 0.930 . S
C1102 H1096 0.930 . S
C1102 C1103 1.355 . S
C1102 C1104 1.415 . S
C1103 C1102 1.355 . S
C1103 C1105 1.419 . S
C1104 C1102 1.415 . S
C1104 C1109 1.425 . S
C1104 C1111 1.409 . S
C1105 H1097 0.930 . S
C1105 C1103 1.419 . S
C1105 C1106 1.362 . S
C1106 H1098 0.930 . S
C1106 C1105 1.362 . S
C1106 C1109 1.409 . S
C1107 H1099 0.930 . S
C1107 C1108 1.355 . S
C1107 C1109 1.415 . S
C1108 C1107 1.355 . S
C1108 C1110 1.419 . S
C1109 C1104 1.425 . S
C1109 C1106 1.409 . S
C1109 C1107 1.415 . S
C1110 H1100 0.930 . S
C1110 C1108 1.419 . S
C1110 C1111 1.362 . S
C1111 H1101 0.930 . S
C1111 C1104 1.409 . S
C1111 C1110 1.362 . S
H1112 C1118 0.930 . S
H1113 C1121 0.930 . S
H1114 C1122 0.930 . S
H1115 C1123 0.930 1_556 S
H1116 C1126 0.930 . S
H1117 C1127 0.930 . S
C1118 H1112 0.930 . S
C1118 C1119 1.355 . S
C1118 C1120 1.415 . S
C1119 C1118 1.355 . S
C1119 C1121 1.419 . S
C1120 C1118 1.415 . S
C1120 C1125 1.425 . S
C1120 C1127 1.409 . S
C1121 H1113 0.930 . S
C1121 C1119 1.419 . S
C1121 C1122 1.362 . S
C1122 H1114 0.930 . S
C1122 C1121 1.362 . S
C1122 C1125 1.409 . S
C1123 H1115 0.930 1_554 S
C1123 C1124 1.355 . S
C1123 C1125 1.415 . S
C1124 C1123 1.355 . S
C1124 C1126 1.423 . S
C1125 C1120 1.425 . S
C1125 C1122 1.409 . S
C1125 C1123 1.415 . S
C1126 H1116 0.930 . S
C1126 C1124 1.423 . S
C1126 C1127 1.362 . S
C1127 H1117 0.930 . S
C1127 C1120 1.409 . S
C1127 C1126 1.362 . S
H1128 C1134 0.930 . S
H1129 C1137 0.930 . S
H1130 C1138 0.930 . S
H1131 C1139 0.930 . S
H1132 C1142 0.930 . S
H1133 C1143 0.930 . S
C1134 H1128 0.930 . S
C1134 C1135 1.355 . S
C1134 C1136 1.415 . S
C1135 C1134 1.355 . S
C1135 C1137 1.419 . S
C1136 C1134 1.415 . S
C1136 C1141 1.425 . S
C1136 C1143 1.409 . S
C1137 H1129 0.930 . S
C1137 C1135 1.419 . S
C1137 C1138 1.362 . S
C1138 H1130 0.930 . S
C1138 C1137 1.362 . S
C1138 C1141 1.409 . S
C1139 H1131 0.930 . S
C1139 C1140 1.355 . S
C1139 C1141 1.415 . S
C1140 C1139 1.355 . S
C1140 C1142 1.419 . S
C1141 C1136 1.425 . S
C1141 C1138 1.409 . S
C1141 C1139 1.415 . S
C1142 H1132 0.930 . S
C1142 C1140 1.419 . S
C1142 C1143 1.362 . S
C1143 H1133 0.930 . S
C1143 C1136 1.409 . S
C1143 C1142 1.362 . S
H1144 C1150 0.930 . S
H1145 C1153 0.930 . S
H1146 C1154 0.930 . S
H1147 C1155 0.930 . S
H1148 C1158 0.930 . S
H1149 C1159 0.930 . S
C1150 H1144 0.930 . S
C1150 C1151 1.355 . S
C1150 C1152 1.415 . S
C1151 C1150 1.355 . S
C1151 C1153 1.419 . S
C1152 C1150 1.415 . S
C1152 C1157 1.425 . S
C1152 C1159 1.409 . S
C1153 H1145 0.930 . S
C1153 C1151 1.419 . S
C1153 C1154 1.362 . S
C1154 H1146 0.930 . S
C1154 C1153 1.362 . S
C1154 C1157 1.409 . S
C1155 H1147 0.930 . S
C1155 C1156 1.355 . S
C1155 C1157 1.415 . S
C1156 C1155 1.355 . S
C1156 C1158 1.419 . S
C1157 C1152 1.425 . S
C1157 C1154 1.409 . S
C1157 C1155 1.415 . S
C1158 H1148 0.930 . S
C1158 C1156 1.419 . S
C1158 C1159 1.362 . S
C1159 H1149 0.930 . S
C1159 C1152 1.409 . S
C1159 C1158 1.362 . S
H1160 C1166 0.930 . S
H1161 C1169 0.930 . S
H1162 C1170 0.930 . S
H1163 C1171 0.930 . S
H1164 C1174 0.930 . S
H1165 C1175 0.930 . S
C1166 H1160 0.930 . S
C1166 C1167 1.355 . S
C1166 C1168 1.415 . S
C1167 C1166 1.355 . S
C1167 C1169 1.419 . S
C1168 C1166 1.415 . S
C1168 C1173 1.425 . S
C1168 C1175 1.409 . S
C1169 H1161 0.930 . S
C1169 C1167 1.419 . S
C1169 C1170 1.362 . S
C1170 H1162 0.930 . S
C1170 C1169 1.362 . S
C1170 C1173 1.409 . S
C1171 H1163 0.930 . S
C1171 C1172 1.355 . S
C1171 C1173 1.415 . S
C1172 C1171 1.355 . S
C1172 C1174 1.419 . S
C1173 C1168 1.425 . S
C1173 C1170 1.409 . S
C1173 C1171 1.415 . S
C1174 H1164 0.930 . S
C1174 C1172 1.419 . S
C1174 C1175 1.362 . S
C1175 H1165 0.930 . S
C1175 C1168 1.409 . S
C1175 C1174 1.362 . S
H1176 C1182 0.930 . S
H1177 C1185 0.930 . S
H1178 C1186 0.930 . S
H1179 C1187 0.930 . S
H1180 C1190 0.930 . S
H1181 C1191 0.930 . S
C1182 H1176 0.930 . S
C1182 C1183 1.355 . S
C1182 C1184 1.415 . S
C1183 C1182 1.355 . S
C1183 C1185 1.419 . S
C1184 C1182 1.415 . S
C1184 C1189 1.425 . S
C1184 C1191 1.409 . S
C1185 H1177 0.930 . S
C1185 C1183 1.419 . S
C1185 C1186 1.362 . S
C1186 H1178 0.930 . S
C1186 C1185 1.362 . S
C1186 C1189 1.409 . S
C1187 H1179 0.930 . S
C1187 C1188 1.355 . S
C1187 C1189 1.415 . S
C1188 C1187 1.355 . S
C1188 C1190 1.419 . S
C1189 C1184 1.425 . S
C1189 C1186 1.409 . S
C1189 C1187 1.415 . S
C1190 H1180 0.930 . S
C1190 C1188 1.419 . S
C1190 C1191 1.362 . S
C1191 H1181 0.930 . S
C1191 C1184 1.409 . S
C1191 C1190 1.362 . S
H1192 C1198 0.930 . S
H1193 C1201 0.930 . S
H1194 C1202 0.930 . S
H1195 C1203 0.930 . S
H1196 C1206 0.930 . S
H1197 C1207 0.930 . S
C1198 H1192 0.930 . S
C1198 C1199 1.355 . S
C1198 C1200 1.415 . S
C1199 C1198 1.355 . S
C1199 C1201 1.419 . S
C1200 C1198 1.415 . S
C1200 C1205 1.425 . S
C1200 C1207 1.409 1_565 S
C1201 H1193 0.930 . S
C1201 C1199 1.419 . S
C1201 C1202 1.362 . S
C1202 H1194 0.930 . S
C1202 C1201 1.362 . S
C1202 C1205 1.409 . S
C1203 H1195 0.930 . S
C1203 C1204 1.355 . S
C1203 C1205 1.415 . S
C1204 C1203 1.355 . S
C1204 C1206 1.419 1_565 S
C1205 C1200 1.425 . S
C1205 C1202 1.409 . S
C1205 C1203 1.415 . S
C1206 H1196 0.930 . S
C1206 C1204 1.419 1_545 S
C1206 C1207 1.362 . S
C1207 H1197 0.930 . S
C1207 C1200 1.409 1_545 S
C1207 C1206 1.362 . S
H1208 C1214 0.930 . S
H1209 C1217 0.930 . S
H1210 C1218 0.930 . S
H1211 C1219 0.930 . S
H1212 C1222 0.930 . S
H1213 C1223 0.930 . S
C1214 H1208 0.930 . S
C1214 C1215 1.355 . S
C1214 C1216 1.415 . S
C1215 C1214 1.355 . S
C1215 C1217 1.419 . S
C1216 C1214 1.415 . S
C1216 C1221 1.425 . S
C1216 C1223 1.409 . S
C1217 H1209 0.930 . S
C1217 C1215 1.419 . S
C1217 C1218 1.362 . S
C1218 H1210 0.930 . S
C1218 C1217 1.362 . S
C1218 C1221 1.409 . S
C1219 H1211 0.930 . S
C1219 C1220 1.355 . S
C1219 C1221 1.415 . S
C1220 C1219 1.355 . S
C1220 C1222 1.419 . S
C1221 C1216 1.425 . S
C1221 C1218 1.409 . S
C1221 C1219 1.415 . S
C1222 H1212 0.930 . S
C1222 C1220 1.419 . S
C1222 C1223 1.362 . S
C1223 H1213 0.930 . S
C1223 C1216 1.409 . S
C1223 C1222 1.362 . S
H1224 C1230 0.930 . S
H1225 C1233 0.930 . S
H1226 C1234 0.930 . S
H1227 C1235 0.930 . S
H1228 C1238 0.930 . S
H1229 C1239 0.930 . S
C1230 H1224 0.930 . S
C1230 C1231 1.355 . S
C1230 C1232 1.415 . S
C1231 C1230 1.355 . S
C1231 C1233 1.419 . S
C1232 C1230 1.415 . S
C1232 C1237 1.425 . S
C1232 C1239 1.409 . S
C1233 H1225 0.930 . S
C1233 C1231 1.419 . S
C1233 C1234 1.362 . S
C1234 H1226 0.930 . S
C1234 C1233 1.362 . S
C1234 C1237 1.409 . S
C1235 H1227 0.930 . S
C1235 C1236 1.355 . S
C1235 C1237 1.415 . S
C1236 C1235 1.355 . S
C1236 C1238 1.419 . S
C1237 C1232 1.425 . S
C1237 C1234 1.409 . S
C1237 C1235 1.415 . S
C1238 H1228 0.930 . S
C1238 C1236 1.419 . S
C1238 C1239 1.362 . S
C1239 H1229 0.930 . S
C1239 C1232 1.409 . S
C1239 C1238 1.362 . S
H1240 C1246 0.930 . S
H1241 C1249 0.930 . S
H1242 C1250 0.919 1_655 S
H1243 C1251 0.930 . S
H1244 C1254 0.930 . S
H1245 C1255 0.930 . S
C1246 H1240 0.930 . S
C1246 C1247 1.355 . S
C1246 C1248 1.415 . S
C1247 C1246 1.355 . S
C1247 C1249 1.419 1_455 S
C1248 C1246 1.415 . S
C1248 C1253 1.425 . S
C1248 C1255 1.409 . S
C1249 H1241 0.930 . S
C1249 C1247 1.419 1_655 S
C1249 C1250 1.355 1_655 S
C1250 H1242 0.919 1_455 S
C1250 C1249 1.355 1_455 S
C1250 C1253 1.428 . S
C1251 H1243 0.930 . S
C1251 C1252 1.361 . S
C1251 C1253 1.415 . S
C1252 C1251 1.361 . S
C1252 C1254 1.417 1_556 S
C1253 C1248 1.425 . S
C1253 C1250 1.428 . S
C1253 C1251 1.415 . S
C1254 H1244 0.930 . S
C1254 C1252 1.417 1_554 S
C1254 C1255 1.362 1_554 S
C1255 H1245 0.930 . S
C1255 C1248 1.409 . S
C1255 C1254 1.362 1_556 S
H1256 C1262 0.930 . S
H1257 C1265 0.930 . S
H1258 C1266 0.930 . S
H1259 C1267 0.930 . S
H1260 C1270 0.930 . S
H1261 C1271 0.930 . S
C1262 H1256 0.930 . S
C1262 C1263 1.355 . S
C1262 C1264 1.415 . S
C1263 C1262 1.355 . S
C1263 C1265 1.419 . S
C1264 C1262 1.415 . S
C1264 C1269 1.425 . S
C1264 C1271 1.409 . S
C1265 H1257 0.930 . S
C1265 C1263 1.419 . S
C1265 C1266 1.362 . S
C1266 H1258 0.930 . S
C1266 C1265 1.362 . S
C1266 C1269 1.409 . S
C1267 H1259 0.930 . S
C1267 C1268 1.355 . S
C1267 C1269 1.415 . S
C1268 C1267 1.355 . S
C1268 C1270 1.419 . S
C1269 C1264 1.425 . S
C1269 C1266 1.409 . S
C1269 C1267 1.415 . S
C1270 H1260 0.930 . S
C1270 C1268 1.419 . S
C1270 C1271 1.362 . S
C1271 H1261 0.930 . S
C1271 C1264 1.409 . S
C1271 C1270 1.362 . S
H1272 C1278 0.930 . S
H1273 C1281 0.930 . S
H1274 C1282 0.930 . S
H1275 C1283 0.930 . S
H1276 C1286 0.930 . S
H1277 C1287 0.930 . S
C1278 H1272 0.930 . S
C1278 C1279 1.355 . S
C1278 C1280 1.415 . S
C1279 C1278 1.355 . S
C1279 C1281 1.419 . S
C1280 C1278 1.415 . S
C1280 C1285 1.425 . S
C1280 C1287 1.409 . S
C1281 H1273 0.930 . S
C1281 C1279 1.419 . S
C1281 C1282 1.362 . S
C1282 H1274 0.930 . S
C1282 C1281 1.362 . S
C1282 C1285 1.409 . S
C1283 H1275 0.930 . S
C1283 C1284 1.355 . S
C1283 C1285 1.415 . S
C1284 C1283 1.355 . S
C1284 C1286 1.419 . S
C1285 C1280 1.425 . S
C1285 C1282 1.409 . S
C1285 C1283 1.415 . S
C1286 H1276 0.930 . S
C1286 C1284 1.419 . S
C1286 C1287 1.362 . S
C1287 H1277 0.930 . S
C1287 C1280 1.409 . S
C1287 C1286 1.362 . S
H1288 C1294 0.930 . S
H1289 C1297 0.930 . S
H1290 C1298 0.930 . S
H1291 C1299 0.930 . S
H1292 C1302 0.930 . S
H1293 C1303 0.930 . S
C1294 H1288 0.930 . S
C1294 C1295 1.355 . S
C1294 C1296 1.415 . S
C1295 C1294 1.355 . S
C1295 C1297 1.419 . S
C1296 C1294 1.415 . S
C1296 C1301 1.425 . S
C1296 C1303 1.409 . S
C1297 H1289 0.930 . S
C1297 C1295 1.419 . S
C1297 C1298 1.362 . S
C1298 H1290 0.930 . S
C1298 C1297 1.362 . S
C1298 C1301 1.409 . S
C1299 H1291 0.930 . S
C1299 C1300 1.355 . S
C1299 C1301 1.415 . S
C1300 C1299 1.355 . S
C1300 C1302 1.419 . S
C1301 C1296 1.425 . S
C1301 C1298 1.409 . S
C1301 C1299 1.415 . S
C1302 H1292 0.930 . S
C1302 C1300 1.419 . S
C1302 C1303 1.362 . S
C1303 H1293 0.930 . S
C1303 C1296 1.409 . S
C1303 C1302 1.362 . S
H1304 C1310 0.930 . S
H1305 C1313 0.930 . S
H1306 C1314 0.930 . S
H1307 C1315 0.930 . S
H1308 C1318 0.950 . S
H1309 C1319 0.930 1_655 S
C1310 H1304 0.930 . S
C1310 C1311 1.355 . S
C1310 C1312 1.415 . S
C1311 C1310 1.355 . S
C1311 C1313 1.419 . S
C1312 C1310 1.415 . S
C1312 C1317 1.425 . S
C1312 C1319 1.409 . S
C1313 H1305 0.930 . S
C1313 C1311 1.419 . S
C1313 C1314 1.362 . S
C1314 H1306 0.930 . S
C1314 C1313 1.362 . S
C1314 C1317 1.409 . S
C1315 H1307 0.930 . S
C1315 C1316 1.355 . S
C1315 C1317 1.415 . S
C1316 C1315 1.355 . S
C1316 C1318 1.419 . S
C1317 C1312 1.425 . S
C1317 C1314 1.409 . S
C1317 C1315 1.415 . S
C1318 H1308 0.950 . S
C1318 C1316 1.419 . S
C1318 C1319 1.362 . S
C1319 H1309 0.930 1_455 S
C1319 C1312 1.409 . S
C1319 C1318 1.362 . S
H1320 C1326 0.930 . S
H1321 C1329 0.930 . S
H1322 C1330 0.930 . S
H1323 C1331 0.930 . S
H1324 C1334 0.930 . S
H1325 C1335 0.930 . S
C1326 H1320 0.930 . S
C1326 C1327 1.355 . S
C1326 C1328 1.415 . S
C1327 C1326 1.355 . S
C1327 C1329 1.419 . S
C1328 C1326 1.415 . S
C1328 C1333 1.425 . S
C1328 C1335 1.409 . S
C1329 H1321 0.930 . S
C1329 C1327 1.419 . S
C1329 C1330 1.362 . S
C1330 H1322 0.930 . S
C1330 C1329 1.362 . S
C1330 C1333 1.409 . S
C1331 H1323 0.930 . S
C1331 C1332 1.355 . S
C1331 C1333 1.415 . S
C1332 C1331 1.355 . S
C1332 C1334 1.419 . S
C1333 C1328 1.425 . S
C1333 C1330 1.409 . S
C1333 C1331 1.415 . S
C1334 H1324 0.930 . S
C1334 C1332 1.419 . S
C1334 C1335 1.362 . S
C1335 H1325 0.930 . S
C1335 C1328 1.409 . S
C1335 C1334 1.362 . S
H1336 C1342 0.930 . S
H1337 C1345 0.930 . S
H1338 C1346 0.930 . S
H1339 C1347 0.930 . S
H1340 C1350 0.930 . S
H1341 C1351 0.930 . S
C1342 H1336 0.930 . S
C1342 C1343 1.355 . S
C1342 C1344 1.415 . S
C1343 C1342 1.355 . S
C1343 C1345 1.419 . S
C1344 C1342 1.415 . S
C1344 C1349 1.425 . S
C1344 C1351 1.409 . S
C1345 H1337 0.930 . S
C1345 C1343 1.419 . S
C1345 C1346 1.362 . S
C1346 H1338 0.930 . S
C1346 C1345 1.362 . S
C1346 C1349 1.409 . S
C1347 H1339 0.930 . S
C1347 C1348 1.355 . S
C1347 C1349 1.415 . S
C1348 C1347 1.355 . S
C1348 C1350 1.419 . S
C1349 C1344 1.425 . S
C1349 C1346 1.409 . S
C1349 C1347 1.415 . S
C1350 H1340 0.930 . S
C1350 C1348 1.419 . S
C1350 C1351 1.362 . S
C1351 H1341 0.930 . S
C1351 C1344 1.409 . S
C1351 C1350 1.362 . S
H1352 C1358 0.930 . S
H1353 C1361 0.930 . S
H1354 C1362 0.930 . S
H1355 C1363 0.930 . S
H1356 C1366 0.930 . S
H1357 C1367 0.930 . S
C1358 H1352 0.930 . S
C1358 C1359 1.355 . S
C1358 C1360 1.415 . S
C1359 C1358 1.355 . S
C1359 C1361 1.419 . S
C1360 C1358 1.415 . S
C1360 C1365 1.425 . S
C1360 C1367 1.409 . S
C1361 H1353 0.930 . S
C1361 C1359 1.419 . S
C1361 C1362 1.362 . S
C1362 H1354 0.930 . S
C1362 C1361 1.362 . S
C1362 C1365 1.409 . S
C1363 H1355 0.930 . S
C1363 C1364 1.355 . S
C1363 C1365 1.415 . S
C1364 C1363 1.355 . S
C1364 C1366 1.419 . S
C1365 C1360 1.425 . S
C1365 C1362 1.409 . S
C1365 C1363 1.415 . S
C1366 H1356 0.930 . S
C1366 C1364 1.419 . S
C1366 C1367 1.362 . S
C1367 H1357 0.930 . S
C1367 C1360 1.409 . S
C1367 C1366 1.362 . S
H1368 C1374 0.930 . S
H1369 C1377 0.930 . S
H1370 C1378 0.930 . S
H1371 C1379 0.930 . S
H1372 C1382 0.931 . S
H1373 C1383 0.930 . S
C1374 H1368 0.930 . S
C1374 C1375 1.355 1_565 S
C1374 C1376 1.415 1_565 S
C1375 C1374 1.355 1_545 S
C1375 C1377 1.419 . S
C1376 C1374 1.415 1_545 S
C1376 C1381 1.425 . S
C1376 C1383 1.409 1_545 S
C1377 H1369 0.930 . S
C1377 C1375 1.419 . S
C1377 C1378 1.362 . S
C1378 H1370 0.930 . S
C1378 C1377 1.362 . S
C1378 C1381 1.409 . S
C1379 H1371 0.930 . S
C1379 C1380 1.355 1_655 S
C1379 C1381 1.415 . S
C1380 C1379 1.355 1_455 S
C1380 C1382 1.417 1_545 S
C1381 C1376 1.425 . S
C1381 C1378 1.409 . S
C1381 C1379 1.415 . S
C1382 H1372 0.931 . S
C1382 C1380 1.417 1_565 S
C1382 C1383 1.363 1_455 S
C1383 H1373 0.930 . S
C1383 C1376 1.409 1_565 S
C1383 C1382 1.363 1_655 S
H1384 C1390 0.930 . S
H1385 C1393 0.930 . S
H1386 C1394 0.930 . S
H1387 C1395 0.930 . S
H1388 C1398 0.930 . S
H1389 C1399 0.930 . S
C1390 H1384 0.930 . S
C1390 C1391 1.355 . S
C1390 C1392 1.415 . S
C1391 C1390 1.355 . S
C1391 C1393 1.419 . S
C1392 C1390 1.415 . S
C1392 C1397 1.425 . S
C1392 C1399 1.409 . S
C1393 H1385 0.930 . S
C1393 C1391 1.419 . S
C1393 C1394 1.362 . S
C1394 H1386 0.930 . S
C1394 C1393 1.362 . S
C1394 C1397 1.409 . S
C1395 H1387 0.930 . S
C1395 C1396 1.355 . S
C1395 C1397 1.415 . S
C1396 C1395 1.355 . S
C1396 C1398 1.419 . S
C1397 C1392 1.425 . S
C1397 C1394 1.409 . S
C1397 C1395 1.415 . S
C1398 H1388 0.930 . S
C1398 C1396 1.419 . S
C1398 C1399 1.362 . S
C1399 H1389 0.930 . S
C1399 C1392 1.409 . S
C1399 C1398 1.362 . S
H1400 C1406 0.930 1_565 S
H1401 C1409 0.930 . S
H1402 C1410 0.930 . S
H1403 C1411 0.930 . S
H1404 C1414 0.930 . S
H1405 C1415 0.930 . S
C1406 H1400 0.930 1_545 S
C1406 C1407 1.355 . S
C1406 C1408 1.418 . S
C1407 C1406 1.355 . S
C1407 C1409 1.419 . S
C1408 C1406 1.418 . S
C1408 C1413 1.440 . S
C1408 C1415 1.393 1_545 S
C1409 H1401 0.930 . S
C1409 C1407 1.419 . S
C1409 C1410 1.362 . S
C1410 H1402 0.930 . S
C1410 C1409 1.362 . S
C1410 C1413 1.409 . S
C1411 H1403 0.930 . S
C1411 C1412 1.355 1_545 S
C1411 C1413 1.415 . S
C1412 C1411 1.355 1_565 S
C1412 C1414 1.419 . S
C1413 C1408 1.440 . S
C1413 C1410 1.409 . S
C1413 C1411 1.415 . S
C1414 H1404 0.930 . S
C1414 C1412 1.419 . S
C1414 C1415 1.362 . S
C1415 H1405 0.930 . S
C1415 C1408 1.393 1_565 S
C1415 C1414 1.362 . S
H1416 C1422 0.930 . S
H1417 C1425 0.930 . S
H1418 C1426 0.930 . S
H1419 C1427 0.930 . S
H1420 C1430 0.930 . S
H1421 C1431 0.930 . S
C1422 H1416 0.930 . S
C1422 C1423 1.355 . S
C1422 C1424 1.415 . S
C1423 C1422 1.355 . S
C1423 C1425 1.419 . S
C1424 C1422 1.415 . S
C1424 C1429 1.425 . S
C1424 C1431 1.409 . S
C1425 H1417 0.930 . S
C1425 C1423 1.419 . S
C1425 C1426 1.362 . S
C1426 H1418 0.930 . S
C1426 C1425 1.362 . S
C1426 C1429 1.409 . S
C1427 H1419 0.930 . S
C1427 C1428 1.355 . S
C1427 C1429 1.415 . S
C1428 C1427 1.355 . S
C1428 C1430 1.419 . S
C1429 C1424 1.425 . S
C1429 C1426 1.409 . S
C1429 C1427 1.415 . S
C1430 H1420 0.930 . S
C1430 C1428 1.419 . S
C1430 C1431 1.362 . S
C1431 H1421 0.930 . S
C1431 C1424 1.409 . S
C1431 C1430 1.362 . S
H1432 C1438 0.930 . S
H1433 C1441 0.930 . S
H1434 C1442 0.930 . S
H1435 C1443 0.930 . S
H1436 C1446 0.930 . S
H1437 C1447 0.930 . S
C1438 H1432 0.930 . S
C1438 C1439 1.355 1_545 S
C1438 C1440 1.415 . S
C1439 C1438 1.355 1_565 S
C1439 C1441 1.419 . S
C1440 C1438 1.415 . S
C1440 C1445 1.425 1_545 S
C1440 C1447 1.409 . S
C1441 H1433 0.930 . S
C1441 C1439 1.419 . S
C1441 C1442 1.362 . S
C1442 H1434 0.930 . S
C1442 C1441 1.362 . S
C1442 C1445 1.409 . S
C1443 H1435 0.930 . S
C1443 C1444 1.355 . S
C1443 C1445 1.415 . S
C1444 C1443 1.355 . S
C1444 C1446 1.419 1_565 S
C1445 C1440 1.425 1_565 S
C1445 C1442 1.409 . S
C1445 C1443 1.415 . S
C1446 H1436 0.930 . S
C1446 C1444 1.419 1_545 S
C1446 C1447 1.362 . S
C1447 H1437 0.930 . S
C1447 C1440 1.409 . S
C1447 C1446 1.362 . S
H1448 C1454 0.930 . S
H1449 C1457 0.930 . S
H1450 C1458 0.930 . S
H1451 C1459 0.930 . S
H1452 C1462 0.930 . S
H1453 C1463 0.930 . S
C1454 H1448 0.930 . S
C1454 C1455 1.355 . S
C1454 C1456 1.415 . S
C1455 C1454 1.355 . S
C1455 C1457 1.419 . S
C1456 C1454 1.415 . S
C1456 C1461 1.425 . S
C1456 C1463 1.409 . S
C1457 H1449 0.930 . S
C1457 C1455 1.419 . S
C1457 C1458 1.362 . S
C1458 H1450 0.930 . S
C1458 C1457 1.362 . S
C1458 C1461 1.409 . S
C1459 H1451 0.930 . S
C1459 C1460 1.355 . S
C1459 C1461 1.415 . S
C1460 C1459 1.355 . S
C1460 C1462 1.419 . S
C1461 C1456 1.425 . S
C1461 C1458 1.409 . S
C1461 C1459 1.415 . S
C1462 H1452 0.930 . S
C1462 C1460 1.419 . S
C1462 C1463 1.362 . S
C1463 H1453 0.930 . S
C1463 C1456 1.409 . S
C1463 C1462 1.362 . S
H1464 C1470 0.930 . S
H1465 C1473 0.930 . S
H1466 C1474 0.930 . S
H1467 C1475 0.930 . S
H1468 C1478 0.930 . S
H1469 C1479 0.930 . S
C1470 H1464 0.930 . S
C1470 C1471 1.355 . S
C1470 C1472 1.415 . S
C1471 C1470 1.355 . S
C1471 C1473 1.419 1_545 S
C1472 C1470 1.415 . S
C1472 C1477 1.425 . S
C1472 C1479 1.409 . S
C1473 H1465 0.930 . S
C1473 C1471 1.419 1_565 S
C1473 C1474 1.362 . S
C1474 H1466 0.930 . S
C1474 C1473 1.362 . S
C1474 C1477 1.409 1_565 S
C1475 H1467 0.930 . S
C1475 C1476 1.355 . S
C1475 C1477 1.415 . S
C1476 C1475 1.355 . S
C1476 C1478 1.419 . S
C1477 C1472 1.425 . S
C1477 C1474 1.409 1_545 S
C1477 C1475 1.415 . S
C1478 H1468 0.930 . S
C1478 C1476 1.419 . S
C1478 C1479 1.362 . S
C1479 H1469 0.930 . S
C1479 C1472 1.409 . S
C1479 C1478 1.362 . S
H1480 C1486 0.930 . S
H1481 C1489 0.930 1_554 S
H1482 C1490 0.930 . S
H1483 C1491 0.930 . S
H1484 C1494 0.930 . S
H1485 C1495 0.930 . S
C1486 H1480 0.930 . S
C1486 C1487 1.355 . S
C1486 C1488 1.415 . S
C1487 C1486 1.355 . S
C1487 C1489 1.419 . S
C1488 C1486 1.415 . S
C1488 C1493 1.425 . S
C1488 C1495 1.409 . S
C1489 H1481 0.930 1_556 S
C1489 C1487 1.419 . S
C1489 C1490 1.362 . S
C1490 H1482 0.930 . S
C1490 C1489 1.362 . S
C1490 C1493 1.409 . S
C1491 H1483 0.930 . S
C1491 C1492 1.355 . S
C1491 C1493 1.415 . S
C1492 C1491 1.355 . S
C1492 C1494 1.419 . S
C1493 C1488 1.425 . S
C1493 C1490 1.409 . S
C1493 C1491 1.415 . S
C1494 H1484 0.930 . S
C1494 C1492 1.419 . S
C1494 C1495 1.362 . S
C1495 H1485 0.930 . S
C1495 C1488 1.409 . S
C1495 C1494 1.362 . S
H1496 C1502 0.930 . S
H1497 C1505 0.930 . S
H1498 C1506 0.930 . S
H1499 C1507 0.930 . S
H1500 C1510 0.930 . S
H1501 C1511 0.930 . S
C1502 H1496 0.930 . S
C1502 C1503 1.355 . S
C1502 C1504 1.415 . S
C1503 C1502 1.355 . S
C1503 C1505 1.419 . S
C1504 C1502 1.415 . S
C1504 C1509 1.425 . S
C1504 C1511 1.409 . S
C1505 H1497 0.930 . S
C1505 C1503 1.419 . S
C1505 C1506 1.362 . S
C1506 H1498 0.930 . S
C1506 C1505 1.362 . S
C1506 C1509 1.409 . S
C1507 H1499 0.930 . S
C1507 C1508 1.355 . S
C1507 C1509 1.415 . S
C1508 C1507 1.355 . S
C1508 C1510 1.419 . S
C1509 C1504 1.425 . S
C1509 C1506 1.409 . S
C1509 C1507 1.415 . S
C1510 H1500 0.930 . S
C1510 C1508 1.419 . S
C1510 C1511 1.362 . S
C1511 H1501 0.930 . S
C1511 C1504 1.409 . S
C1511 C1510 1.362 . S
H1512 C1518 0.930 . S
H1513 C1521 0.930 . S
H1514 C1522 0.930 . S
H1515 C1523 0.930 . S
H1516 C1526 0.930 . S
H1517 C1527 0.930 . S
C1518 H1512 0.930 . S
C1518 C1519 1.355 1_556 S
C1518 C1520 1.415 . S
C1519 C1518 1.355 1_554 S
C1519 C1521 1.419 . S
C1520 C1518 1.415 . S
C1520 C1525 1.425 1_556 S
C1520 C1527 1.409 . S
C1521 H1513 0.930 . S
C1521 C1519 1.419 . S
C1521 C1522 1.362 . S
C1522 H1514 0.930 . S
C1522 C1521 1.362 . S
C1522 C1525 1.409 . S
C1523 H1515 0.930 . S
C1523 C1524 1.355 . S
C1523 C1525 1.415 . S
C1524 C1523 1.355 . S
C1524 C1526 1.419 1_554 S
C1525 C1520 1.425 1_554 S
C1525 C1522 1.409 . S
C1525 C1523 1.415 . S
C1526 H1516 0.930 . S
C1526 C1524 1.419 1_556 S
C1526 C1527 1.362 . S
C1527 H1517 0.930 . S
C1527 C1520 1.409 . S
C1527 C1526 1.362 . S
H1528 C1534 0.930 . S
H1529 C1537 0.930 . S
H1530 C1538 0.930 . S
H1531 C1539 0.930 . S
H1532 C1542 0.930 . S
H1533 C1543 0.930 . S
C1534 H1528 0.930 . S
C1534 C1535 1.355 . S
C1534 C1536 1.415 . S
C1535 C1534 1.355 . S
C1535 C1537 1.419 . S
C1536 C1534 1.415 . S
C1536 C1541 1.425 . S
C1536 C1543 1.409 . S
C1537 H1529 0.930 . S
C1537 C1535 1.419 . S
C1537 C1538 1.362 . S
C1538 H1530 0.930 . S
C1538 C1537 1.362 . S
C1538 C1541 1.409 . S
C1539 H1531 0.930 . S
C1539 C1540 1.355 . S
C1539 C1541 1.415 . S
C1540 C1539 1.355 . S
C1540 C1542 1.419 . S
C1541 C1536 1.425 . S
C1541 C1538 1.409 . S
C1541 C1539 1.415 . S
C1542 H1532 0.930 . S
C1542 C1540 1.419 . S
C1542 C1543 1.362 . S
C1543 H1533 0.930 . S
C1543 C1536 1.409 . S
C1543 C1542 1.362 . S
H1544 C1550 0.930 . S
H1545 C1553 0.930 . S
H1546 C1554 0.930 . S
H1547 C1555 0.930 . S
H1548 C1558 0.930 . S
H1549 C1559 0.930 . S
C1550 H1544 0.930 . S
C1550 C1551 1.355 . S
C1550 C1552 1.415 . S
C1551 C1550 1.355 . S
C1551 C1553 1.419 . S
C1552 C1550 1.415 . S
C1552 C1557 1.425 . S
C1552 C1559 1.409 . S
C1553 H1545 0.930 . S
C1553 C1551 1.419 . S
C1553 C1554 1.362 . S
C1554 H1546 0.930 . S
C1554 C1553 1.362 . S
C1554 C1557 1.409 . S
C1555 H1547 0.930 . S
C1555 C1556 1.355 . S
C1555 C1557 1.415 . S
C1556 C1555 1.355 . S
C1556 C1558 1.419 . S
C1557 C1552 1.425 . S
C1557 C1554 1.409 . S
C1557 C1555 1.415 . S
C1558 H1548 0.930 . S
C1558 C1556 1.419 . S
C1558 C1559 1.362 . S
C1559 H1549 0.930 . S
C1559 C1552 1.409 . S
C1559 C1558 1.362 . S
H1560 C1566 0.930 . S
H1561 C1569 0.930 . S
H1562 C1570 0.930 . S
H1563 C1571 0.930 . S
H1564 C1574 0.930 . S
H1565 C1575 0.930 . S
C1566 H1560 0.930 . S
C1566 C1567 1.355 . S
C1566 C1568 1.415 . S
C1567 C1566 1.355 . S
C1567 C1569 1.419 . S
C1568 C1566 1.415 . S
C1568 C1573 1.425 . S
C1568 C1575 1.409 . S
C1569 H1561 0.930 . S
C1569 C1567 1.419 . S
C1569 C1570 1.362 . S
C1570 H1562 0.930 . S
C1570 C1569 1.362 . S
C1570 C1573 1.409 . S
C1571 H1563 0.930 . S
C1571 C1572 1.355 . S
C1571 C1573 1.415 . S
C1572 C1571 1.355 . S
C1572 C1574 1.419 . S
C1573 C1568 1.425 . S
C1573 C1570 1.409 . S
C1573 C1571 1.415 . S
C1574 H1564 0.930 . S
C1574 C1572 1.419 . S
C1574 C1575 1.362 . S
C1575 H1565 0.930 . S
C1575 C1568 1.409 . S
C1575 C1574 1.362 . S
H1576 C1582 0.930 . S
H1577 C1585 0.930 . S
H1578 C1586 0.930 . S
H1579 C1587 0.930 . S
H1580 C1590 0.930 . S
H1581 C1591 0.930 . S
C1582 H1576 0.930 . S
C1582 C1583 1.355 . S
C1582 C1584 1.415 . S
C1583 C1582 1.355 . S
C1583 C1585 1.419 . S
C1584 C1582 1.415 . S
C1584 C1589 1.425 . S
C1584 C1591 1.409 . S
C1585 H1577 0.930 . S
C1585 C1583 1.419 . S
C1585 C1586 1.362 . S
C1586 H1578 0.930 . S
C1586 C1585 1.362 . S
C1586 C1589 1.409 . S
C1587 H1579 0.930 . S
C1587 C1588 1.355 . S
C1587 C1589 1.415 . S
C1588 C1587 1.355 . S
C1588 C1590 1.419 . S
C1589 C1584 1.425 . S
C1589 C1586 1.409 . S
C1589 C1587 1.415 . S
C1590 H1580 0.930 . S
C1590 C1588 1.419 . S
C1590 C1591 1.362 . S
C1591 H1581 0.930 . S
C1591 C1584 1.409 . S
C1591 C1590 1.362 . S
H1592 C1598 0.930 . S
H1593 C1601 0.930 . S
H1594 C1602 0.930 . S
H1595 C1603 0.930 . S
H1596 C1606 0.930 . S
H1597 C1607 0.930 . S
C1598 H1592 0.930 . S
C1598 C1599 1.355 . S
C1598 C1600 1.415 . S
C1599 C1598 1.355 . S
C1599 C1601 1.419 . S
C1600 C1598 1.415 . S
C1600 C1605 1.425 . S
C1600 C1607 1.409 . S
C1601 H1593 0.930 . S
C1601 C1599 1.419 . S
C1601 C1602 1.362 . S
C1602 H1594 0.930 . S
C1602 C1601 1.362 . S
C1602 C1605 1.409 . S
C1603 H1595 0.930 . S
C1603 C1604 1.355 . S
C1603 C1605 1.415 . S
C1604 C1603 1.355 . S
C1604 C1606 1.419 . S
C1605 C1600 1.425 . S
C1605 C1602 1.409 . S
C1605 C1603 1.415 . S
C1606 H1596 0.930 . S
C1606 C1604 1.419 . S
C1606 C1607 1.362 . S
C1607 H1597 0.930 . S
C1607 C1600 1.409 . S
C1607 C1606 1.362 . S
H1608 C1614 0.930 . S
H1609 C1617 0.930 . S
H1610 C1618 0.930 . S
H1611 C1619 0.930 . S
H1612 C1622 0.930 . S
H1613 C1623 0.930 . S
C1614 H1608 0.930 . S
C1614 C1615 1.355 . S
C1614 C1616 1.415 . S
C1615 C1614 1.355 . S
C1615 C1617 1.419 . S
C1616 C1614 1.415 . S
C1616 C1621 1.425 . S
C1616 C1623 1.409 . S
C1617 H1609 0.930 . S
C1617 C1615 1.419 . S
C1617 C1618 1.362 . S
C1618 H1610 0.930 . S
C1618 C1617 1.362 . S
C1618 C1621 1.409 . S
C1619 H1611 0.930 . S
C1619 C1620 1.355 . S
C1619 C1621 1.415 . S
C1620 C1619 1.355 . S
C1620 C1622 1.419 . S
C1621 C1616 1.425 . S
C1621 C1618 1.409 . S
C1621 C1619 1.415 . S
C1622 H1612 0.930 . S
C1622 C1620 1.419 . S
C1622 C1623 1.362 . S
C1623 H1613 0.930 . S
C1623 C1616 1.409 . S
C1623 C1622 1.362 . S
H1624 C1630 0.930 . S
H1625 C1633 0.930 . S
H1626 C1634 0.930 . S
H1627 C1635 0.930 . S
H1628 C1638 0.930 . S
H1629 C1639 0.930 . S
C1630 H1624 0.930 . S
C1630 C1631 1.355 . S
C1630 C1632 1.415 . S
C1631 C1630 1.355 . S
C1631 C1633 1.419 . S
C1632 C1630 1.415 . S
C1632 C1637 1.425 . S
C1632 C1639 1.409 . S
C1633 H1625 0.930 . S
C1633 C1631 1.419 . S
C1633 C1634 1.362 . S
C1634 H1626 0.930 . S
C1634 C1633 1.362 . S
C1634 C1637 1.409 . S
C1635 H1627 0.930 . S
C1635 C1636 1.355 . S
C1635 C1637 1.415 . S
C1636 C1635 1.355 . S
C1636 C1638 1.419 . S
C1637 C1632 1.425 . S
C1637 C1634 1.409 . S
C1637 C1635 1.415 . S
C1638 H1628 0.930 . S
C1638 C1636 1.419 . S
C1638 C1639 1.362 . S
C1639 H1629 0.930 . S
C1639 C1632 1.409 . S
C1639 C1638 1.362 . S
H1640 C1646 0.930 . S
H1641 C1649 0.930 . S
H1642 C1650 0.930 . S
H1643 C1651 0.930 . S
H1644 C1654 0.930 . S
H1645 C1655 0.930 . S
C1646 H1640 0.930 . S
C1646 C1647 1.355 . S
C1646 C1648 1.415 . S
C1647 C1646 1.355 . S
C1647 C1649 1.419 . S
C1648 C1646 1.415 . S
C1648 C1653 1.425 . S
C1648 C1655 1.409 . S
C1649 H1641 0.930 . S
C1649 C1647 1.419 . S
C1649 C1650 1.362 . S
C1650 H1642 0.930 . S
C1650 C1649 1.362 . S
C1650 C1653 1.409 . S
C1651 H1643 0.930 . S
C1651 C1652 1.355 . S
C1651 C1653 1.415 . S
C1652 C1651 1.355 . S
C1652 C1654 1.419 . S
C1653 C1648 1.425 . S
C1653 C1650 1.409 . S
C1653 C1651 1.415 . S
C1654 H1644 0.930 . S
C1654 C1652 1.419 . S
C1654 C1655 1.362 . S
C1655 H1645 0.930 . S
C1655 C1648 1.409 . S
C1655 C1654 1.362 . S
H1656 C1662 0.930 . S
H1657 C1665 0.930 . S
H1658 C1666 0.930 . S
H1659 C1667 0.930 . S
H1660 C1670 0.930 . S
H1661 C1671 0.930 . S
C1662 H1656 0.930 . S
C1662 C1663 1.355 . S
C1662 C1664 1.415 . S
C1663 C1662 1.355 . S
C1663 C1665 1.419 . S
C1664 C1662 1.415 . S
C1664 C1669 1.425 . S
C1664 C1671 1.409 . S
C1665 H1657 0.930 . S
C1665 C1663 1.419 . S
C1665 C1666 1.362 . S
C1666 H1658 0.930 . S
C1666 C1665 1.362 . S
C1666 C1669 1.409 . S
C1667 H1659 0.930 . S
C1667 C1668 1.355 . S
C1667 C1669 1.415 . S
C1668 C1667 1.355 . S
C1668 C1670 1.419 . S
C1669 C1664 1.425 . S
C1669 C1666 1.409 . S
C1669 C1667 1.415 . S
C1670 H1660 0.930 . S
C1670 C1668 1.419 . S
C1670 C1671 1.362 . S
C1671 H1661 0.930 . S
C1671 C1664 1.409 . S
C1671 C1670 1.362 . S
H1672 C1678 0.930 . S
H1673 C1681 0.930 . S
H1674 C1682 0.930 . S
H1675 C1683 0.930 . S
H1676 C1686 0.930 . S
H1677 C1687 0.930 . S
C1678 H1672 0.930 . S
C1678 C1679 1.355 . S
C1678 C1680 1.415 . S
C1679 C1678 1.355 . S
C1679 C1681 1.419 . S
C1680 C1678 1.415 . S
C1680 C1685 1.425 . S
C1680 C1687 1.409 . S
C1681 H1673 0.930 . S
C1681 C1679 1.419 . S
C1681 C1682 1.362 . S
C1682 H1674 0.930 . S
C1682 C1681 1.362 . S
C1682 C1685 1.409 . S
C1683 H1675 0.930 . S
C1683 C1684 1.355 . S
C1683 C1685 1.415 . S
C1684 C1683 1.355 . S
C1684 C1686 1.419 . S
C1685 C1680 1.425 . S
C1685 C1682 1.409 . S
C1685 C1683 1.415 . S
C1686 H1676 0.930 . S
C1686 C1684 1.419 . S
C1686 C1687 1.362 . S
C1687 H1677 0.930 . S
C1687 C1680 1.409 . S
C1687 C1686 1.362 . S
H1688 C1694 0.930 . S
H1689 C1697 0.930 . S
H1690 C1698 0.930 . S
H1691 C1699 0.930 1_554 S
H1692 C1702 0.930 . S
H1693 C1703 0.930 . S
C1694 H1688 0.930 . S
C1694 C1695 1.355 . S
C1694 C1696 1.415 . S
C1695 C1694 1.355 . S
C1695 C1697 1.419 . S
C1696 C1694 1.415 . S
C1696 C1701 1.425 . S
C1696 C1703 1.409 . S
C1697 H1689 0.930 . S
C1697 C1695 1.419 . S
C1697 C1698 1.362 . S
C1698 H1690 0.930 . S
C1698 C1697 1.362 . S
C1698 C1701 1.409 . S
C1699 H1691 0.930 1_556 S
C1699 C1700 1.355 . S
C1699 C1701 1.415 . S
C1700 C1699 1.355 . S
C1700 C1702 1.419 . S
C1701 C1696 1.425 . S
C1701 C1698 1.409 . S
C1701 C1699 1.415 . S
C1702 H1692 0.930 . S
C1702 C1700 1.419 . S
C1702 C1703 1.362 . S
C1703 H1693 0.930 . S
C1703 C1696 1.409 . S
C1703 C1702 1.362 . S
H1704 C1710 0.930 . S
H1705 C1713 0.930 . S
H1706 C1714 0.930 . S
H1707 C1715 0.930 . S
H1708 C1718 0.930 . S
H1709 C1719 0.930 . S
C1710 H1704 0.930 . S
C1710 C1711 1.355 1_655 S
C1710 C1712 1.415 . S
C1711 C1710 1.355 1_455 S
C1711 C1713 1.419 . S
C1712 C1710 1.415 . S
C1712 C1717 1.425 . S
C1712 C1719 1.409 . S
C1713 H1705 0.930 . S
C1713 C1711 1.419 . S
C1713 C1714 1.362 1_455 S
C1714 H1706 0.930 . S
C1714 C1713 1.362 1_655 S
C1714 C1717 1.409 . S
C1715 H1707 0.930 . S
C1715 C1716 1.355 . S
C1715 C1717 1.415 . S
C1716 C1715 1.355 . S
C1716 C1718 1.419 . S
C1717 C1712 1.425 . S
C1717 C1714 1.409 . S
C1717 C1715 1.415 . S
C1718 H1708 0.930 . S
C1718 C1716 1.419 . S
C1718 C1719 1.362 . S
C1719 H1709 0.930 . S
C1719 C1712 1.409 . S
C1719 C1718 1.362 . S
H1720 C1726 0.930 . S
H1721 C1729 0.930 . S
H1722 C1730 0.930 . S
H1723 C1731 0.930 . S
H1724 C1734 0.930 . S
H1725 C1735 0.930 . S
C1726 H1720 0.930 . S
C1726 C1727 1.355 . S
C1726 C1728 1.415 . S
C1727 C1726 1.355 . S
C1727 C1729 1.419 . S
C1728 C1726 1.415 . S
C1728 C1733 1.425 . S
C1728 C1735 1.409 . S
C1729 H1721 0.930 . S
C1729 C1727 1.419 . S
C1729 C1730 1.362 . S
C1730 H1722 0.930 . S
C1730 C1729 1.362 . S
C1730 C1733 1.409 . S
C1731 H1723 0.930 . S
C1731 C1732 1.355 . S
C1731 C1733 1.415 . S
C1732 C1731 1.355 . S
C1732 C1734 1.419 . S
C1733 C1728 1.425 . S
C1733 C1730 1.409 . S
C1733 C1731 1.415 . S
C1734 H1724 0.930 . S
C1734 C1732 1.419 . S
C1734 C1735 1.362 . S
C1735 H1725 0.930 . S
C1735 C1728 1.409 . S
C1735 C1734 1.362 . S
H1736 C1742 0.930 . S
H1737 C1745 0.930 . S
H1738 C1746 0.930 . S
H1739 C1747 0.930 . S
H1740 C1750 0.930 . S
H1741 C1751 0.930 . S
C1742 H1736 0.930 . S
C1742 C1743 1.355 . S
C1742 C1744 1.415 . S
C1743 C1742 1.355 . S
C1743 C1745 1.419 . S
C1744 C1742 1.415 . S
C1744 C1749 1.425 . S
C1744 C1751 1.409 . S
C1745 H1737 0.930 . S
C1745 C1743 1.419 . S
C1745 C1746 1.362 . S
C1746 H1738 0.930 . S
C1746 C1745 1.362 . S
C1746 C1749 1.409 . S
C1747 H1739 0.930 . S
C1747 C1748 1.355 . S
C1747 C1749 1.415 . S
C1748 C1747 1.355 . S
C1748 C1750 1.419 . S
C1749 C1744 1.425 . S
C1749 C1746 1.409 . S
C1749 C1747 1.415 . S
C1750 H1740 0.930 . S
C1750 C1748 1.419 . S
C1750 C1751 1.362 . S
C1751 H1741 0.930 . S
C1751 C1744 1.409 . S
C1751 C1750 1.362 . S
H1752 C1758 0.930 . S
H1753 C1761 0.930 . S
H1754 C1762 0.930 . S
H1755 C1763 0.930 . S
H1756 C1766 0.930 . S
H1757 C1767 0.930 . S
C1758 H1752 0.930 . S
C1758 C1759 1.355 . S
C1758 C1760 1.415 . S
C1759 C1758 1.355 . S
C1759 C1761 1.419 . S
C1760 C1758 1.415 . S
C1760 C1765 1.425 . S
C1760 C1767 1.409 . S
C1761 H1753 0.930 . S
C1761 C1759 1.419 . S
C1761 C1762 1.362 . S
C1762 H1754 0.930 . S
C1762 C1761 1.362 . S
C1762 C1765 1.409 . S
C1763 H1755 0.930 . S
C1763 C1764 1.355 . S
C1763 C1765 1.415 . S
C1764 C1763 1.355 . S
C1764 C1766 1.419 . S
C1765 C1760 1.425 . S
C1765 C1762 1.409 . S
C1765 C1763 1.415 . S
C1766 H1756 0.930 . S
C1766 C1764 1.419 . S
C1766 C1767 1.362 . S
C1767 H1757 0.930 . S
C1767 C1760 1.409 . S
C1767 C1766 1.362 . S
H1768 C1774 0.930 . S
H1769 C1777 0.930 . S
H1770 C1778 0.930 . S
H1771 C1779 0.930 . S
H1772 C1782 0.930 . S
H1773 C1783 0.930 . S
C1774 H1768 0.930 . S
C1774 C1775 1.355 1_556 S
C1774 C1776 1.415 . S
C1775 C1774 1.355 1_554 S
C1775 C1777 1.419 . S
C1776 C1774 1.415 . S
C1776 C1781 1.425 . S
C1776 C1783 1.409 . S
C1777 H1769 0.930 . S
C1777 C1775 1.419 . S
C1777 C1778 1.362 1_554 S
C1778 H1770 0.930 . S
C1778 C1777 1.362 1_556 S
C1778 C1781 1.409 . S
C1779 H1771 0.930 . S
C1779 C1780 1.355 . S
C1779 C1781 1.415 . S
C1780 C1779 1.355 . S
C1780 C1782 1.419 . S
C1781 C1776 1.425 . S
C1781 C1778 1.409 . S
C1781 C1779 1.415 . S
C1782 H1772 0.930 . S
C1782 C1780 1.419 . S
C1782 C1783 1.362 . S
C1783 H1773 0.930 . S
C1783 C1776 1.409 . S
C1783 C1782 1.362 . S
H1784 C1790 0.930 . S
H1785 C1793 0.930 . S
H1786 C1794 0.930 . S
H1787 C1795 0.930 . S
H1788 C1798 0.930 . S
H1789 C1799 0.930 . S
C1790 H1784 0.930 . S
C1790 C1791 1.355 . S
C1790 C1792 1.415 . S
C1791 C1790 1.355 . S
C1791 C1793 1.419 . S
C1792 C1790 1.415 . S
C1792 C1797 1.425 . S
C1792 C1799 1.409 1_655 S
C1793 H1785 0.930 . S
C1793 C1791 1.419 . S
C1793 C1794 1.362 . S
C1794 H1786 0.930 . S
C1794 C1793 1.362 . S
C1794 C1797 1.409 . S
C1795 H1787 0.930 . S
C1795 C1796 1.355 1_655 S
C1795 C1797 1.415 . S
C1796 C1795 1.355 1_455 S
C1796 C1798 1.419 . S
C1797 C1792 1.425 . S
C1797 C1794 1.409 . S
C1797 C1795 1.415 . S
C1798 H1788 0.930 . S
C1798 C1796 1.419 . S
C1798 C1799 1.362 . S
C1799 H1789 0.930 . S
C1799 C1792 1.409 1_455 S
C1799 C1798 1.362 . S
H1800 C1806 0.930 . S
H1801 C1809 0.930 . S
H1802 C1810 0.930 . S
H1803 C1811 0.930 . S
H1804 C1814 0.930 . S
H1805 C1815 0.930 . S
C1806 H1800 0.930 . S
C1806 C1807 1.355 . S
C1806 C1808 1.415 . S
C1807 C1806 1.355 . S
C1807 C1809 1.419 . S
C1808 C1806 1.415 . S
C1808 C1813 1.425 . S
C1808 C1815 1.409 . S
C1809 H1801 0.930 . S
C1809 C1807 1.419 . S
C1809 C1810 1.362 . S
C1810 H1802 0.930 . S
C1810 C1809 1.362 . S
C1810 C1813 1.409 . S
C1811 H1803 0.930 . S
C1811 C1812 1.355 . S
C1811 C1813 1.415 . S
C1812 C1811 1.355 . S
C1812 C1814 1.419 . S
C1813 C1808 1.425 . S
C1813 C1810 1.409 . S
C1813 C1811 1.415 . S
C1814 H1804 0.930 . S
C1814 C1812 1.419 . S
C1814 C1815 1.362 . S
C1815 H1805 0.930 . S
C1815 C1808 1.409 . S
C1815 C1814 1.362 . S
H1816 C1822 0.930 . S
H1817 C1825 0.930 . S
H1818 C1826 0.930 . S
H1819 C1827 0.930 . S
H1820 C1830 0.930 . S
H1821 C1831 0.930 . S
C1822 H1816 0.930 . S
C1822 C1823 1.355 . S
C1822 C1824 1.415 . S
C1823 C1822 1.355 . S
C1823 C1825 1.419 . S
C1824 C1822 1.415 . S
C1824 C1829 1.425 . S
C1824 C1831 1.409 . S
C1825 H1817 0.930 . S
C1825 C1823 1.419 . S
C1825 C1826 1.362 . S
C1826 H1818 0.930 . S
C1826 C1825 1.362 . S
C1826 C1829 1.409 . S
C1827 H1819 0.930 . S
C1827 C1828 1.355 . S
C1827 C1829 1.415 . S
C1828 C1827 1.355 . S
C1828 C1830 1.419 . S
C1829 C1824 1.425 . S
C1829 C1826 1.409 . S
C1829 C1827 1.415 . S
C1830 H1820 0.930 . S
C1830 C1828 1.419 . S
C1830 C1831 1.362 . S
C1831 H1821 0.930 . S
C1831 C1824 1.409 . S
C1831 C1830 1.362 . S
H1832 C1838 0.930 . S
H1833 C1841 0.930 . S
H1834 C1842 0.930 . S
H1835 C1843 0.930 . S
H1836 C1846 0.930 . S
H1837 C1847 0.930 . S
C1838 H1832 0.930 . S
C1838 C1839 1.355 . S
C1838 C1840 1.415 . S
C1839 C1838 1.355 . S
C1839 C1841 1.419 . S
C1840 C1838 1.415 . S
C1840 C1845 1.425 . S
C1840 C1847 1.409 . S
C1841 H1833 0.930 . S
C1841 C1839 1.419 . S
C1841 C1842 1.362 . S
C1842 H1834 0.930 . S
C1842 C1841 1.362 . S
C1842 C1845 1.409 . S
C1843 H1835 0.930 . S
C1843 C1844 1.355 . S
C1843 C1845 1.415 . S
C1844 C1843 1.355 . S
C1844 C1846 1.419 . S
C1845 C1840 1.425 . S
C1845 C1842 1.409 . S
C1845 C1843 1.415 . S
C1846 H1836 0.930 . S
C1846 C1844 1.419 . S
C1846 C1847 1.362 . S
C1847 H1837 0.930 . S
C1847 C1840 1.409 . S
C1847 C1846 1.362 . S
H1848 C1854 0.930 . S
H1849 C1857 0.930 . S
H1850 C1858 0.930 . S
H1851 C1859 0.930 . S
H1852 C1862 0.930 1_455 S
H1853 C1863 0.930 . S
C1854 H1848 0.930 . S
C1854 C1855 1.355 . S
C1854 C1856 1.415 . S
C1855 C1854 1.355 . S
C1855 C1857 1.419 . S
C1856 C1854 1.415 . S
C1856 C1861 1.425 . S
C1856 C1863 1.409 . S
C1857 H1849 0.930 . S
C1857 C1855 1.419 . S
C1857 C1858 1.362 . S
C1858 H1850 0.930 . S
C1858 C1857 1.362 . S
C1858 C1861 1.409 . S
C1859 H1851 0.930 . S
C1859 C1860 1.355 . S
C1859 C1861 1.415 . S
C1860 C1859 1.355 . S
C1860 C1862 1.419 . S
C1861 C1856 1.425 . S
C1861 C1858 1.409 . S
C1861 C1859 1.415 . S
C1862 H1852 0.930 1_655 S
C1862 C1860 1.419 . S
C1862 C1863 1.362 . S
C1863 H1853 0.930 . S
C1863 C1856 1.409 . S
C1863 C1862 1.362 . S
H1864 C1870 0.930 . S
H1865 C1873 0.930 . S
H1866 C1874 0.930 . S
H1867 C1875 0.930 . S
H1868 C1878 0.930 . S
H1869 C1879 0.930 . S
C1870 H1864 0.930 . S
C1870 C1871 1.355 . S
C1870 C1872 1.415 . S
C1871 C1870 1.355 . S
C1871 C1873 1.419 . S
C1872 C1870 1.415 . S
C1872 C1877 1.425 . S
C1872 C1879 1.409 . S
C1873 H1865 0.930 . S
C1873 C1871 1.419 . S
C1873 C1874 1.362 . S
C1874 H1866 0.930 . S
C1874 C1873 1.362 . S
C1874 C1877 1.409 . S
C1875 H1867 0.930 . S
C1875 C1876 1.355 . S
C1875 C1877 1.415 . S
C1876 C1875 1.355 . S
C1876 C1878 1.419 . S
C1877 C1872 1.425 . S
C1877 C1874 1.409 . S
C1877 C1875 1.415 . S
C1878 H1868 0.930 . S
C1878 C1876 1.419 . S
C1878 C1879 1.362 . S
C1879 H1869 0.930 . S
C1879 C1872 1.409 . S
C1879 C1878 1.362 . S
H1880 C1886 0.930 . S
H1881 C1889 0.930 . S
H1882 C1890 0.930 . S
H1883 C1891 0.930 . S
H1884 C1894 0.930 . S
H1885 C1895 0.930 . S
C1886 H1880 0.930 . S
C1886 C1887 1.355 . S
C1886 C1888 1.415 . S
C1887 C1886 1.355 . S
C1887 C1889 1.419 . S
C1888 C1886 1.415 . S
C1888 C1893 1.425 . S
C1888 C1895 1.409 . S
C1889 H1881 0.930 . S
C1889 C1887 1.419 . S
C1889 C1890 1.362 . S
C1890 H1882 0.930 . S
C1890 C1889 1.362 . S
C1890 C1893 1.409 . S
C1891 H1883 0.930 . S
C1891 C1892 1.355 . S
C1891 C1893 1.415 . S
C1892 C1891 1.355 . S
C1892 C1894 1.419 . S
C1893 C1888 1.425 . S
C1893 C1890 1.409 . S
C1893 C1891 1.415 . S
C1894 H1884 0.930 . S
C1894 C1892 1.419 . S
C1894 C1895 1.362 . S
C1895 H1885 0.930 . S
C1895 C1888 1.409 . S
C1895 C1894 1.362 . S
H1896 C1902 0.930 . S
H1897 C1905 0.930 . S
H1898 C1906 0.930 1_545 S
H1899 C1907 0.930 1_545 S
H1900 C1910 0.930 . S
H1901 C1911 0.930 . S
C1902 H1896 0.930 . S
C1902 C1903 1.355 . S
C1902 C1904 1.415 . S
C1903 C1902 1.355 . S
C1903 C1905 1.419 . S
C1904 C1902 1.415 . S
C1904 C1909 1.425 . S
C1904 C1911 1.409 . S
C1905 H1897 0.930 . S
C1905 C1903 1.419 . S
C1905 C1906 1.362 . S
C1906 H1898 0.930 1_565 S
C1906 C1905 1.362 . S
C1906 C1909 1.409 . S
C1907 H1899 0.930 1_565 S
C1907 C1908 1.355 . S
C1907 C1909 1.415 . S
C1908 C1907 1.355 . S
C1908 C1910 1.419 . S
C1909 C1904 1.425 . S
C1909 C1906 1.409 . S
C1909 C1907 1.415 . S
C1910 H1900 0.930 . S
C1910 C1908 1.419 . S
C1910 C1911 1.362 . S
C1911 H1901 0.930 . S
C1911 C1904 1.409 . S
C1911 C1910 1.362 . S
H1912 C1918 0.930 . S
H1913 C1921 0.930 . S
H1914 C1922 0.930 . S
H1915 C1923 0.930 . S
H1916 C1926 0.930 . S
H1917 C1927 0.930 . S
C1918 H1912 0.930 . S
C1918 C1919 1.355 . S
C1918 C1920 1.415 . S
C1919 C1918 1.355 . S
C1919 C1921 1.419 . S
C1920 C1918 1.415 . S
C1920 C1925 1.425 . S
C1920 C1927 1.409 . S
C1921 H1913 0.930 . S
C1921 C1919 1.419 . S
C1921 C1922 1.362 . S
C1922 H1914 0.930 . S
C1922 C1921 1.362 . S
C1922 C1925 1.409 . S
C1923 H1915 0.930 . S
C1923 C1924 1.355 . S
C1923 C1925 1.415 . S
C1924 C1923 1.355 . S
C1924 C1926 1.419 . S
C1925 C1920 1.425 . S
C1925 C1922 1.409 . S
C1925 C1923 1.415 . S
C1926 H1916 0.930 . S
C1926 C1924 1.419 . S
C1926 C1927 1.362 . S
C1927 H1917 0.930 . S
C1927 C1920 1.409 . S
C1927 C1926 1.362 . S
H1928 C1934 0.930 . S
H1929 C1937 0.930 . S
H1930 C1938 0.930 . S
H1931 C1939 0.930 . S
H1932 C1942 0.930 1_565 S
H1933 C1943 0.930 1_565 S
C1934 H1928 0.930 . S
C1934 C1935 1.355 . S
C1934 C1936 1.415 . S
C1935 C1934 1.355 . S
C1935 C1937 1.419 . S
C1936 C1934 1.415 . S
C1936 C1941 1.425 . S
C1936 C1943 1.409 . S
C1937 H1929 0.930 . S
C1937 C1935 1.419 . S
C1937 C1938 1.362 . S
C1938 H1930 0.930 . S
C1938 C1937 1.362 . S
C1938 C1941 1.409 . S
C1939 H1931 0.930 . S
C1939 C1940 1.355 . S
C1939 C1941 1.415 . S
C1940 C1939 1.355 . S
C1940 C1942 1.419 . S
C1941 C1936 1.425 . S
C1941 C1938 1.409 . S
C1941 C1939 1.415 . S
C1942 H1932 0.930 1_545 S
C1942 C1940 1.419 . S
C1942 C1943 1.362 . S
C1943 H1933 0.930 1_545 S
C1943 C1936 1.409 . S
C1943 C1942 1.362 . S
H1944 C1950 0.930 . S
H1945 C1953 0.930 . S
H1946 C1954 0.930 . S
H1947 C1955 0.930 . S
H1948 C1958 0.930 . S
H1949 C1959 0.930 . S
C1950 H1944 0.930 . S
C1950 C1951 1.355 . S
C1950 C1952 1.415 . S
C1951 C1950 1.355 . S
C1951 C1953 1.419 . S
C1952 C1950 1.415 . S
C1952 C1957 1.425 . S
C1952 C1959 1.409 . S
C1953 H1945 0.930 . S
C1953 C1951 1.419 . S
C1953 C1954 1.362 . S
C1954 H1946 0.930 . S
C1954 C1953 1.362 . S
C1954 C1957 1.409 . S
C1955 H1947 0.930 . S
C1955 C1956 1.355 . S
C1955 C1957 1.415 . S
C1956 C1955 1.355 . S
C1956 C1958 1.419 . S
C1957 C1952 1.425 . S
C1957 C1954 1.409 . S
C1957 C1955 1.415 . S
C1958 H1948 0.930 . S
C1958 C1956 1.419 . S
C1958 C1959 1.362 . S
C1959 H1949 0.930 . S
C1959 C1952 1.409 . S
C1959 C1958 1.362 . S
H1960 C1966 0.930 . S
H1961 C1969 0.930 . S
H1962 C1970 0.930 . S
H1963 C1971 0.930 . S
H1964 C1974 0.930 . S
H1965 C1975 0.930 . S
C1966 H1960 0.930 . S
C1966 C1967 1.355 . S
C1966 C1968 1.415 . S
C1967 C1966 1.355 . S
C1967 C1969 1.419 . S
C1968 C1966 1.415 . S
C1968 C1973 1.425 . S
C1968 C1975 1.409 . S
C1969 H1961 0.930 . S
C1969 C1967 1.419 . S
C1969 C1970 1.362 . S
C1970 H1962 0.930 . S
C1970 C1969 1.362 . S
C1970 C1973 1.409 . S
C1971 H1963 0.930 . S
C1971 C1972 1.355 . S
C1971 C1973 1.415 . S
C1972 C1971 1.355 . S
C1972 C1974 1.419 . S
C1973 C1968 1.425 . S
C1973 C1970 1.409 . S
C1973 C1971 1.415 . S
C1974 H1964 0.930 . S
C1974 C1972 1.419 . S
C1974 C1975 1.362 . S
C1975 H1965 0.930 . S
C1975 C1968 1.409 . S
C1975 C1974 1.362 . S
H1976 C1982 0.930 . S
H1977 C1985 0.930 . S
H1978 C1986 0.930 . S
H1979 C1987 0.930 . S
H1980 C1990 0.930 . S
H1981 C1991 0.930 . S
C1982 H1976 0.930 . S
C1982 C1983 1.355 . S
C1982 C1984 1.415 . S
C1983 C1982 1.355 . S
C1983 C1985 1.419 . S
C1984 C1982 1.415 . S
C1984 C1989 1.425 . S
C1984 C1991 1.409 . S
C1985 H1977 0.930 . S
C1985 C1983 1.419 . S
C1985 C1986 1.362 . S
C1986 H1978 0.930 . S
C1986 C1985 1.362 . S
C1986 C1989 1.409 . S
C1987 H1979 0.930 . S
C1987 C1988 1.355 . S
C1987 C1989 1.415 . S
C1988 C1987 1.355 . S
C1988 C1990 1.419 . S
C1989 C1984 1.425 . S
C1989 C1986 1.409 . S
C1989 C1987 1.415 . S
C1990 H1980 0.930 . S
C1990 C1988 1.419 . S
C1990 C1991 1.362 . S
C1991 H1981 0.930 . S
C1991 C1984 1.409 . S
C1991 C1990 1.362 . S
H1992 C1998 0.930 . S
H1993 C2001 0.930 . S
H1994 C2002 0.930 . S
H1995 C2003 0.930 . S
H1996 C2006 0.930 . S
H1997 C2007 0.930 . S
C1998 H1992 0.930 . S
C1998 C1999 1.355 . S
C1998 C2000 1.415 . S
C1999 C1998 1.355 . S
C1999 C2001 1.419 . S
C2000 C1998 1.415 . S
C2000 C2005 1.425 . S
C2000 C2007 1.409 . S
C2001 H1993 0.930 . S
C2001 C1999 1.419 . S
C2001 C2002 1.362 . S
C2002 H1994 0.930 . S
C2002 C2001 1.362 . S
C2002 C2005 1.409 . S
C2003 H1995 0.930 . S
C2003 C2004 1.355 . S
C2003 C2005 1.415 . S
C2004 C2003 1.355 . S
C2004 C2006 1.419 . S
C2005 C2000 1.425 . S
C2005 C2002 1.409 . S
C2005 C2003 1.415 . S
C2006 H1996 0.930 . S
C2006 C2004 1.419 . S
C2006 C2007 1.362 . S
C2007 H1997 0.930 . S
C2007 C2000 1.409 . S
C2007 C2006 1.362 . S
H2008 C2014 0.930 . S
H2009 C2017 0.930 . S
H2010 C2018 0.930 . S
H2011 C2019 0.930 . S
H2012 C2022 0.930 . S
H2013 C2023 0.930 . S
C2014 H2008 0.930 . S
C2014 C2015 1.355 . S
C2014 C2016 1.415 . S
C2015 C2014 1.355 . S
C2015 C2017 1.419 . S
C2016 C2014 1.415 . S
C2016 C2021 1.425 . S
C2016 C2023 1.409 . S
C2017 H2009 0.930 . S
C2017 C2015 1.419 . S
C2017 C2018 1.362 . S
C2018 H2010 0.930 . S
C2018 C2017 1.362 . S
C2018 C2021 1.409 . S
C2019 H2011 0.930 . S
C2019 C2020 1.355 . S
C2019 C2021 1.415 . S
C2020 C2019 1.355 . S
C2020 C2022 1.419 . S
C2021 C2016 1.425 . S
C2021 C2018 1.409 . S
C2021 C2019 1.415 . S
C2022 H2012 0.930 . S
C2022 C2020 1.419 . S
C2022 C2023 1.362 . S
C2023 H2013 0.930 . S
C2023 C2016 1.409 . S
C2023 C2022 1.362 . S
H2024 C2030 0.930 . S
H2025 C2033 0.930 . S
H2026 C2034 0.930 . S
H2027 C2035 0.930 . S
H2028 C2038 0.930 . S
H2029 C2039 0.930 . S
C2030 H2024 0.930 . S
C2030 C2031 1.355 . S
C2030 C2032 1.415 . S
C2031 C2030 1.355 . S
C2031 C2033 1.419 . S
C2032 C2030 1.415 . S
C2032 C2037 1.425 . S
C2032 C2039 1.409 . S
C2033 H2025 0.930 . S
C2033 C2031 1.419 . S
C2033 C2034 1.362 . S
C2034 H2026 0.930 . S
C2034 C2033 1.362 . S
C2034 C2037 1.409 . S
C2035 H2027 0.930 . S
C2035 C2036 1.355 . S
C2035 C2037 1.415 . S
C2036 C2035 1.355 . S
C2036 C2038 1.419 . S
C2037 C2032 1.425 . S
C2037 C2034 1.409 . S
C2037 C2035 1.415 . S
C2038 H2028 0.930 . S
C2038 C2036 1.419 . S
C2038 C2039 1.362 . S
C2039 H2029 0.930 . S
C2039 C2032 1.409 . S
C2039 C2038 1.362 . S
H2040 C2046 0.930 . S
H2041 C2049 0.926 1_455 S
H2042 C2050 0.930 1_455 S
H2043 C2051 0.930 . S
H2044 C2054 0.930 1_554 S
H2045 C2055 0.930 1_554 S
C2046 H2040 0.930 . S
C2046 C2047 1.355 . S
C2046 C2048 1.415 . S
C2047 C2046 1.355 . S
C2047 C2049 1.420 . S
C2048 C2046 1.415 . S
C2048 C2053 1.425 . S
C2048 C2055 1.409 . S
C2049 H2041 0.926 1_655 S
C2049 C2047 1.420 . S
C2049 C2050 1.363 . S
C2050 H2042 0.930 1_655 S
C2050 C2049 1.363 . S
C2050 C2053 1.409 . S
C2051 H2043 0.930 . S
C2051 C2052 1.355 . S
C2051 C2053 1.415 . S
C2052 C2051 1.355 . S
C2052 C2054 1.419 . S
C2053 C2048 1.425 . S
C2053 C2050 1.409 . S
C2053 C2051 1.415 . S
C2054 H2044 0.930 1_556 S
C2054 C2052 1.419 . S
C2054 C2055 1.362 . S
C2055 H2045 0.930 1_556 S
C2055 C2048 1.409 . S
C2055 C2054 1.362 . S
H2056 C2062 0.930 . S
H2057 C2065 0.930 . S
H2058 C2066 0.930 . S
H2059 C2067 0.930 . S
H2060 C2070 0.930 . S
H2061 C2071 0.930 . S
C2062 H2056 0.930 . S
C2062 C2063 1.355 . S
C2062 C2064 1.415 . S
C2063 C2062 1.355 . S
C2063 C2065 1.419 . S
C2064 C2062 1.415 . S
C2064 C2069 1.425 . S
C2064 C2071 1.409 . S
C2065 H2057 0.930 . S
C2065 C2063 1.419 . S
C2065 C2066 1.362 . S
C2066 H2058 0.930 . S
C2066 C2065 1.362 . S
C2066 C2069 1.409 . S
C2067 H2059 0.930 . S
C2067 C2068 1.355 . S
C2067 C2069 1.415 . S
C2068 C2067 1.355 . S
C2068 C2070 1.419 . S
C2069 C2064 1.425 . S
C2069 C2066 1.409 . S
C2069 C2067 1.415 . S
C2070 H2060 0.930 . S
C2070 C2068 1.419 . S
C2070 C2071 1.362 . S
C2071 H2061 0.930 . S
C2071 C2064 1.409 . S
C2071 C2070 1.362 . S
H2072 C2078 0.930 . S
H2073 C2081 0.930 . S
H2074 C2082 0.930 . S
H2075 C2083 0.930 . S
H2076 C2086 0.930 . S
H2077 C2087 0.930 . S
C2078 H2072 0.930 . S
C2078 C2079 1.355 . S
C2078 C2080 1.415 . S
C2079 C2078 1.355 . S
C2079 C2081 1.419 . S
C2080 C2078 1.415 . S
C2080 C2085 1.425 . S
C2080 C2087 1.409 . S
C2081 H2073 0.930 . S
C2081 C2079 1.419 . S
C2081 C2082 1.362 . S
C2082 H2074 0.930 . S
C2082 C2081 1.362 . S
C2082 C2085 1.409 . S
C2083 H2075 0.930 . S
C2083 C2084 1.355 . S
C2083 C2085 1.415 . S
C2084 C2083 1.355 . S
C2084 C2086 1.419 . S
C2085 C2080 1.425 . S
C2085 C2082 1.409 . S
C2085 C2083 1.415 . S
C2086 H2076 0.930 . S
C2086 C2084 1.419 . S
C2086 C2087 1.362 . S
C2087 H2077 0.930 . S
C2087 C2080 1.409 . S
C2087 C2086 1.362 . S
H2088 C2094 0.930 . S
H2089 C2097 0.930 . S
H2090 C2098 0.930 . S
H2091 C2099 0.930 . S
H2092 C2102 0.930 . S
H2093 C2103 0.930 . S
C2094 H2088 0.930 . S
C2094 C2095 1.355 . S
C2094 C2096 1.415 . S
C2095 C2094 1.355 . S
C2095 C2097 1.419 . S
C2096 C2094 1.415 . S
C2096 C2101 1.425 . S
C2096 C2103 1.409 . S
C2097 H2089 0.930 . S
C2097 C2095 1.419 . S
C2097 C2098 1.362 . S
C2098 H2090 0.930 . S
C2098 C2097 1.362 . S
C2098 C2101 1.409 . S
C2099 H2091 0.930 . S
C2099 C2100 1.355 . S
C2099 C2101 1.415 . S
C2100 C2099 1.355 . S
C2100 C2102 1.419 . S
C2101 C2096 1.425 . S
C2101 C2098 1.409 . S
C2101 C2099 1.415 . S
C2102 H2092 0.930 . S
C2102 C2100 1.419 . S
C2102 C2103 1.362 . S
C2103 H2093 0.930 . S
C2103 C2096 1.409 . S
C2103 C2102 1.362 . S
H2104 C2110 0.930 1_655 S
H2105 C2113 0.930 . S
H2106 C2114 0.930 . S
H2107 C2115 0.930 . S
H2108 C2118 0.930 . S
H2109 C2119 0.930 . S
C2110 H2104 0.930 1_455 S
C2110 C2111 1.355 . S
C2110 C2112 1.415 . S
C2111 C2110 1.355 . S
C2111 C2113 1.419 . S
C2112 C2110 1.415 . S
C2112 C2117 1.425 . S
C2112 C2119 1.409 1_455 S
C2113 H2105 0.930 . S
C2113 C2111 1.419 . S
C2113 C2114 1.362 . S
C2114 H2106 0.930 . S
C2114 C2113 1.362 . S
C2114 C2117 1.409 . S
C2115 H2107 0.930 . S
C2115 C2116 1.355 . S
C2115 C2117 1.415 . S
C2116 C2115 1.355 . S
C2116 C2118 1.419 1_455 S
C2117 C2112 1.425 . S
C2117 C2114 1.409 . S
C2117 C2115 1.415 . S
C2118 H2108 0.930 . S
C2118 C2116 1.419 1_655 S
C2118 C2119 1.362 . S
C2119 H2109 0.930 . S
C2119 C2112 1.409 1_655 S
C2119 C2118 1.362 . S
H2120 C2126 0.930 . S
H2121 C2129 0.930 . S
H2122 C2130 0.930 . S
H2123 C2131 0.930 . S
H2124 C2134 0.930 . S
H2125 C2135 0.930 . S
C2126 H2120 0.930 . S
C2126 C2127 1.355 . S
C2126 C2128 1.415 . S
C2127 C2126 1.355 . S
C2127 C2129 1.419 . S
C2128 C2126 1.415 . S
C2128 C2133 1.425 . S
C2128 C2135 1.409 . S
C2129 H2121 0.930 . S
C2129 C2127 1.419 . S
C2129 C2130 1.362 . S
C2130 H2122 0.930 . S
C2130 C2129 1.362 . S
C2130 C2133 1.409 . S
C2131 H2123 0.930 . S
C2131 C2132 1.355 . S
C2131 C2133 1.415 . S
C2132 C2131 1.355 . S
C2132 C2134 1.419 . S
C2133 C2128 1.425 . S
C2133 C2130 1.409 . S
C2133 C2131 1.415 . S
C2134 H2124 0.930 . S
C2134 C2132 1.419 . S
C2134 C2135 1.362 . S
C2135 H2125 0.930 . S
C2135 C2128 1.409 . S
C2135 C2134 1.362 . S
H2136 C2142 0.930 . S
H2137 C2145 0.930 . S
H2138 C2146 0.930 . S
H2139 C2147 0.930 . S
H2140 C2150 0.930 . S
H2141 C2151 0.930 . S
C2142 H2136 0.930 . S
C2142 C2143 1.355 . S
C2142 C2144 1.415 . S
C2143 C2142 1.355 . S
C2143 C2145 1.419 . S
C2144 C2142 1.415 . S
C2144 C2149 1.425 . S
C2144 C2151 1.409 . S
C2145 H2137 0.930 . S
C2145 C2143 1.419 . S
C2145 C2146 1.362 . S
C2146 H2138 0.930 . S
C2146 C2145 1.362 . S
C2146 C2149 1.409 . S
C2147 H2139 0.930 . S
C2147 C2148 1.355 . S
C2147 C2149 1.415 . S
C2148 C2147 1.355 . S
C2148 C2150 1.419 . S
C2149 C2144 1.425 . S
C2149 C2146 1.409 . S
C2149 C2147 1.415 . S
C2150 H2140 0.930 . S
C2150 C2148 1.419 . S
C2150 C2151 1.362 . S
C2151 H2141 0.930 . S
C2151 C2144 1.409 . S
C2151 C2150 1.362 . S
H2152 C2158 0.930 . S
H2153 C2161 0.930 . S
H2154 C2162 0.930 . S
H2155 C2163 0.930 . S
H2156 C2166 0.930 . S
H2157 C2167 0.930 . S
C2158 H2152 0.930 . S
C2158 C2159 1.355 . S
C2158 C2160 1.415 . S
C2159 C2158 1.355 . S
C2159 C2161 1.419 . S
C2160 C2158 1.415 . S
C2160 C2165 1.425 . S
C2160 C2167 1.409 . S
C2161 H2153 0.930 . S
C2161 C2159 1.419 . S
C2161 C2162 1.362 . S
C2162 H2154 0.930 . S
C2162 C2161 1.362 . S
C2162 C2165 1.409 . S
C2163 H2155 0.930 . S
C2163 C2164 1.355 . S
C2163 C2165 1.415 . S
C2164 C2163 1.355 . S
C2164 C2166 1.419 . S
C2165 C2160 1.425 . S
C2165 C2162 1.409 . S
C2165 C2163 1.415 . S
C2166 H2156 0.930 . S
C2166 C2164 1.419 . S
C2166 C2167 1.362 . S
C2167 H2157 0.930 . S
C2167 C2160 1.409 . S
C2167 C2166 1.362 . S
H2168 C2174 0.930 . S
H2169 C2177 0.930 . S
H2170 C2178 0.930 . S
H2171 C2179 0.930 . S
H2172 C2182 0.930 . S
H2173 C2183 0.930 . S
C2174 H2168 0.930 . S
C2174 C2175 1.355 . S
C2174 C2176 1.415 . S
C2175 C2174 1.355 . S
C2175 C2177 1.419 . S
C2176 C2174 1.415 . S
C2176 C2181 1.425 . S
C2176 C2183 1.409 . S
C2177 H2169 0.930 . S
C2177 C2175 1.419 . S
C2177 C2178 1.362 . S
C2178 H2170 0.930 . S
C2178 C2177 1.362 . S
C2178 C2181 1.409 . S
C2179 H2171 0.930 . S
C2179 C2180 1.355 . S
C2179 C2181 1.415 . S
C2180 C2179 1.355 . S
C2180 C2182 1.419 . S
C2181 C2176 1.425 . S
C2181 C2178 1.409 . S
C2181 C2179 1.415 . S
C2182 H2172 0.930 . S
C2182 C2180 1.419 . S
C2182 C2183 1.362 . S
C2183 H2173 0.930 . S
C2183 C2176 1.409 . S
C2183 C2182 1.362 . S
H2184 C2190 0.930 . S
H2185 C2193 0.930 . S
H2186 C2194 0.930 . S
H2187 C2195 0.930 . S
H2188 C2198 0.930 . S
H2189 C2199 0.930 . S
C2190 H2184 0.930 . S
C2190 C2191 1.355 . S
C2190 C2192 1.415 . S
C2191 C2190 1.355 . S
C2191 C2193 1.419 . S
C2192 C2190 1.415 . S
C2192 C2197 1.425 . S
C2192 C2199 1.409 . S
C2193 H2185 0.930 . S
C2193 C2191 1.419 . S
C2193 C2194 1.362 . S
C2194 H2186 0.930 . S
C2194 C2193 1.362 . S
C2194 C2197 1.409 . S
C2195 H2187 0.930 . S
C2195 C2196 1.355 . S
C2195 C2197 1.415 . S
C2196 C2195 1.355 . S
C2196 C2198 1.419 . S
C2197 C2192 1.425 . S
C2197 C2194 1.409 . S
C2197 C2195 1.415 . S
C2198 H2188 0.930 . S
C2198 C2196 1.419 . S
C2198 C2199 1.362 . S
C2199 H2189 0.930 . S
C2199 C2192 1.409 . S
C2199 C2198 1.362 . S
H2200 C2206 0.930 . S
H2201 C2209 0.930 . S
H2202 C2210 0.930 . S
H2203 C2211 0.930 . S
H2204 C2214 0.930 . S
H2205 C2215 0.930 . S
C2206 H2200 0.930 . S
C2206 C2207 1.355 . S
C2206 C2208 1.415 . S
C2207 C2206 1.355 . S
C2207 C2209 1.419 . S
C2208 C2206 1.415 . S
C2208 C2213 1.425 . S
C2208 C2215 1.409 . S
C2209 H2201 0.930 . S
C2209 C2207 1.419 . S
C2209 C2210 1.362 . S
C2210 H2202 0.930 . S
C2210 C2209 1.362 . S
C2210 C2213 1.409 . S
C2211 H2203 0.930 . S
C2211 C2212 1.355 . S
C2211 C2213 1.415 . S
C2212 C2211 1.355 . S
C2212 C2214 1.419 . S
C2213 C2208 1.425 . S
C2213 C2210 1.409 . S
C2213 C2211 1.415 . S
C2214 H2204 0.930 . S
C2214 C2212 1.419 . S
C2214 C2215 1.362 . S
C2215 H2205 0.930 . S
C2215 C2208 1.409 . S
C2215 C2214 1.362 . S
H2216 C2222 0.930 . S
H2217 C2225 0.930 . S
H2218 C2226 0.930 . S
H2219 C2227 0.930 . S
H2220 C2230 0.930 . S
H2221 C2231 0.930 . S
C2222 H2216 0.930 . S
C2222 C2223 1.355 . S
C2222 C2224 1.415 . S
C2223 C2222 1.355 . S
C2223 C2225 1.419 . S
C2224 C2222 1.415 . S
C2224 C2229 1.425 . S
C2224 C2231 1.409 . S
C2225 H2217 0.930 . S
C2225 C2223 1.419 . S
C2225 C2226 1.362 . S
C2226 H2218 0.930 . S
C2226 C2225 1.362 . S
C2226 C2229 1.409 . S
C2227 H2219 0.930 . S
C2227 C2228 1.355 . S
C2227 C2229 1.415 . S
C2228 C2227 1.355 . S
C2228 C2230 1.419 . S
C2229 C2224 1.425 . S
C2229 C2226 1.409 . S
C2229 C2227 1.415 . S
C2230 H2220 0.930 . S
C2230 C2228 1.419 . S
C2230 C2231 1.362 . S
C2231 H2221 0.930 . S
C2231 C2224 1.409 . S
C2231 C2230 1.362 . S
H2232 C2238 0.930 . S
H2233 C2241 0.930 . S
H2234 C2242 0.930 . S
H2235 C2243 0.930 . S
H2236 C2246 0.930 . S
H2237 C2247 0.930 . S
C2238 H2232 0.930 . S
C2238 C2239 1.355 . S
C2238 C2240 1.415 . S
C2239 C2238 1.355 . S
C2239 C2241 1.419 . S
C2240 C2238 1.415 . S
C2240 C2245 1.425 . S
C2240 C2247 1.409 . S
C2241 H2233 0.930 . S
C2241 C2239 1.419 . S
C2241 C2242 1.362 . S
C2242 H2234 0.930 . S
C2242 C2241 1.362 . S
C2242 C2245 1.409 . S
C2243 H2235 0.930 . S
C2243 C2244 1.355 . S
C2243 C2245 1.415 . S
C2244 C2243 1.355 . S
C2244 C2246 1.419 . S
C2245 C2240 1.425 . S
C2245 C2242 1.409 . S
C2245 C2243 1.415 . S
C2246 H2236 0.930 . S
C2246 C2244 1.419 . S
C2246 C2247 1.362 . S
C2247 H2237 0.930 . S
C2247 C2240 1.409 . S
C2247 C2246 1.362 . S
H2248 C2254 0.930 . S
H2249 C2257 0.930 . S
H2250 C2258 0.930 . S
H2251 C2259 0.930 . S
H2252 C2262 0.930 . S
H2253 C2263 0.930 . S
C2254 H2248 0.930 . S
C2254 C2255 1.355 . S
C2254 C2256 1.415 . S
C2255 C2254 1.355 . S
C2255 C2257 1.419 . S
C2256 C2254 1.415 . S
C2256 C2261 1.425 . S
C2256 C2263 1.409 . S
C2257 H2249 0.930 . S
C2257 C2255 1.419 . S
C2257 C2258 1.362 . S
C2258 H2250 0.930 . S
C2258 C2257 1.362 . S
C2258 C2261 1.409 . S
C2259 H2251 0.930 . S
C2259 C2260 1.355 . S
C2259 C2261 1.415 . S
C2260 C2259 1.355 . S
C2260 C2262 1.419 . S
C2261 C2256 1.425 . S
C2261 C2258 1.409 . S
C2261 C2259 1.415 . S
C2262 H2252 0.930 . S
C2262 C2260 1.419 . S
C2262 C2263 1.362 . S
C2263 H2253 0.930 . S
C2263 C2256 1.409 . S
C2263 C2262 1.362 . S
H2264 C2270 0.930 . S
H2265 C2273 0.930 . S
H2266 C2274 0.930 . S
H2267 C2275 0.930 . S
H2268 C2278 0.930 . S
H2269 C2279 0.930 . S
C2270 H2264 0.930 . S
C2270 C2271 1.355 . S
C2270 C2272 1.415 . S
C2271 C2270 1.355 . S
C2271 C2273 1.419 . S
C2272 C2270 1.415 . S
C2272 C2277 1.425 . S
C2272 C2279 1.409 . S
C2273 H2265 0.930 . S
C2273 C2271 1.419 . S
C2273 C2274 1.362 . S
C2274 H2266 0.930 . S
C2274 C2273 1.362 . S
C2274 C2277 1.409 . S
C2275 H2267 0.930 . S
C2275 C2276 1.355 . S
C2275 C2277 1.415 . S
C2276 C2275 1.355 . S
C2276 C2278 1.419 . S
C2277 C2272 1.425 . S
C2277 C2274 1.409 . S
C2277 C2275 1.415 . S
C2278 H2268 0.930 . S
C2278 C2276 1.419 . S
C2278 C2279 1.362 . S
C2279 H2269 0.930 . S
C2279 C2272 1.409 . S
C2279 C2278 1.362 . S
H2280 C2286 0.930 . S
H2281 C2289 0.930 . S
H2282 C2290 0.930 . S
H2283 C2291 0.930 . S
H2284 C2294 0.930 . S
H2285 C2295 0.930 . S
C2286 H2280 0.930 . S
C2286 C2287 1.355 . S
C2286 C2288 1.415 . S
C2287 C2286 1.355 . S
C2287 C2289 1.419 . S
C2288 C2286 1.415 . S
C2288 C2293 1.425 . S
C2288 C2295 1.409 . S
C2289 H2281 0.930 . S
C2289 C2287 1.419 . S
C2289 C2290 1.362 . S
C2290 H2282 0.930 . S
C2290 C2289 1.362 . S
C2290 C2293 1.409 . S
C2291 H2283 0.930 . S
C2291 C2292 1.355 . S
C2291 C2293 1.415 . S
C2292 C2291 1.355 . S
C2292 C2294 1.419 . S
C2293 C2288 1.425 . S
C2293 C2290 1.409 . S
C2293 C2291 1.415 . S
C2294 H2284 0.930 . S
C2294 C2292 1.419 . S
C2294 C2295 1.362 . S
C2295 H2285 0.930 . S
C2295 C2288 1.409 . S
C2295 C2294 1.362 . S
H2296 C2302 0.930 . S
H2297 C2305 0.930 . S
H2298 C2306 0.930 . S
H2299 C2307 0.930 . S
H2300 C2310 0.930 . S
H2301 C2311 0.930 . S
C2302 H2296 0.930 . S
C2302 C2303 1.355 . S
C2302 C2304 1.415 . S
C2303 C2302 1.355 . S
C2303 C2305 1.419 . S
C2304 C2302 1.415 . S
C2304 C2309 1.425 . S
C2304 C2311 1.409 . S
C2305 H2297 0.930 . S
C2305 C2303 1.419 . S
C2305 C2306 1.362 . S
C2306 H2298 0.930 . S
C2306 C2305 1.362 . S
C2306 C2309 1.409 . S
C2307 H2299 0.930 . S
C2307 C2308 1.355 . S
C2307 C2309 1.415 . S
C2308 C2307 1.355 . S
C2308 C2310 1.419 . S
C2309 C2304 1.425 . S
C2309 C2306 1.409 . S
C2309 C2307 1.415 . S
C2310 H2300 0.930 . S
C2310 C2308 1.419 . S
C2310 C2311 1.362 . S
C2311 H2301 0.930 . S
C2311 C2304 1.409 . S
C2311 C2310 1.362 . S
H2312 C2318 0.930 1_545 S
H2313 C2321 0.930 . S
H2314 C2322 0.930 . S
H2315 C2323 0.930 . S
H2316 C2326 0.930 . S
H2317 C2327 0.930 . S
C2318 H2312 0.930 1_565 S
C2318 C2319 1.355 . S
C2318 C2320 1.415 . S
C2319 C2318 1.355 . S
C2319 C2321 1.419 . S
C2320 C2318 1.415 . S
C2320 C2325 1.425 . S
C2320 C2327 1.409 1_565 S
C2321 H2313 0.930 . S
C2321 C2319 1.419 . S
C2321 C2322 1.362 . S
C2322 H2314 0.930 . S
C2322 C2321 1.362 . S
C2322 C2325 1.409 . S
C2323 H2315 0.930 . S
C2323 C2324 1.355 . S
C2323 C2325 1.415 . S
C2324 C2323 1.355 . S
C2324 C2326 1.419 1_565 S
C2325 C2320 1.425 . S
C2325 C2322 1.409 . S
C2325 C2323 1.415 . S
C2326 H2316 0.930 . S
C2326 C2324 1.419 1_545 S
C2326 C2327 1.362 . S
C2327 H2317 0.930 . S
C2327 C2320 1.409 1_545 S
C2327 C2326 1.362 . S
H2328 C2334 0.930 . S
H2329 C2337 0.930 . S
H2330 C2338 0.930 . S
H2331 C2339 0.930 . S
H2332 C2342 0.930 . S
H2333 C2343 0.930 . S
C2334 H2328 0.930 . S
C2334 C2335 1.355 . S
C2334 C2336 1.415 . S
C2335 C2334 1.355 . S
C2335 C2337 1.419 . S
C2336 C2334 1.415 . S
C2336 C2341 1.425 . S
C2336 C2343 1.409 . S
C2337 H2329 0.930 . S
C2337 C2335 1.419 . S
C2337 C2338 1.362 . S
C2338 H2330 0.930 . S
C2338 C2337 1.362 . S
C2338 C2341 1.409 . S
C2339 H2331 0.930 . S
C2339 C2340 1.355 . S
C2339 C2341 1.415 . S
C2340 C2339 1.355 . S
C2340 C2342 1.419 . S
C2341 C2336 1.425 . S
C2341 C2338 1.409 . S
C2341 C2339 1.415 . S
C2342 H2332 0.930 . S
C2342 C2340 1.419 . S
C2342 C2343 1.362 . S
C2343 H2333 0.930 . S
C2343 C2336 1.409 . S
C2343 C2342 1.362 . S
H2344 C2350 0.930 . S
H2345 C2353 0.930 . S
H2346 C2354 0.930 . S
H2347 C2355 0.930 . S
H2348 C2358 0.930 . S
H2349 C2359 0.930 . S
C2350 H2344 0.930 . S
C2350 C2351 1.355 . S
C2350 C2352 1.415 . S
C2351 C2350 1.355 . S
C2351 C2353 1.419 1_554 S
C2352 C2350 1.415 . S
C2352 C2357 1.425 . S
C2352 C2359 1.409 . S
C2353 H2345 0.930 . S
C2353 C2351 1.419 1_556 S
C2353 C2354 1.362 . S
C2354 H2346 0.930 . S
C2354 C2353 1.362 . S
C2354 C2357 1.409 1_556 S
C2355 H2347 0.930 . S
C2355 C2356 1.355 . S
C2355 C2357 1.415 . S
C2356 C2355 1.355 . S
C2356 C2358 1.419 . S
C2357 C2352 1.425 . S
C2357 C2354 1.409 1_554 S
C2357 C2355 1.415 . S
C2358 H2348 0.930 . S
C2358 C2356 1.419 . S
C2358 C2359 1.362 . S
C2359 H2349 0.930 . S
C2359 C2352 1.409 . S
C2359 C2358 1.362 . S
H2360 C2366 0.930 . S
H2361 C2369 0.930 . S
H2362 C2370 0.930 . S
H2363 C2371 0.930 . S
H2364 C2374 0.930 . S
H2365 C2375 0.930 . S
C2366 H2360 0.930 . S
C2366 C2367 1.355 . S
C2366 C2368 1.415 . S
C2367 C2366 1.355 . S
C2367 C2369 1.419 . S
C2368 C2366 1.415 . S
C2368 C2373 1.425 . S
C2368 C2375 1.409 . S
C2369 H2361 0.930 . S
C2369 C2367 1.419 . S
C2369 C2370 1.362 . S
C2370 H2362 0.930 . S
C2370 C2369 1.362 . S
C2370 C2373 1.409 . S
C2371 H2363 0.930 . S
C2371 C2372 1.355 . S
C2371 C2373 1.415 . S
C2372 C2371 1.355 . S
C2372 C2374 1.419 . S
C2373 C2368 1.425 . S
C2373 C2370 1.409 . S
C2373 C2371 1.415 . S
C2374 H2364 0.930 . S
C2374 C2372 1.419 . S
C2374 C2375 1.362 . S
C2375 H2365 0.930 . S
C2375 C2368 1.409 . S
C2375 C2374 1.362 . S
H2376 C2382 0.930 . S
H2377 C2385 0.930 . S
H2378 C2386 0.930 . S
H2379 C2387 0.930 . S
H2380 C2390 0.930 . S
H2381 C2391 0.930 . S
C2382 H2376 0.930 . S
C2382 C2383 1.355 . S
C2382 C2384 1.415 . S
C2383 C2382 1.355 . S
C2383 C2385 1.419 . S
C2384 C2382 1.415 . S
C2384 C2389 1.425 . S
C2384 C2391 1.409 . S
C2385 H2377 0.930 . S
C2385 C2383 1.419 . S
C2385 C2386 1.362 . S
C2386 H2378 0.930 . S
C2386 C2385 1.362 . S
C2386 C2389 1.409 . S
C2387 H2379 0.930 . S
C2387 C2388 1.355 . S
C2387 C2389 1.415 . S
C2388 C2387 1.355 . S
C2388 C2390 1.419 . S
C2389 C2384 1.425 . S
C2389 C2386 1.409 . S
C2389 C2387 1.415 . S
C2390 H2380 0.930 . S
C2390 C2388 1.419 . S
C2390 C2391 1.362 . S
C2391 H2381 0.930 . S
C2391 C2384 1.409 . S
C2391 C2390 1.362 . S
C868 C329 1.031 . S
C863 C10 1.047 . S
C879 C13 1.717 . S
C884 C375 1.786 . S
C895 C34 0.864 . S
C900 C384 0.891 . S
C916 C422 1.584 . S
C911 C44 1.626 . S
C927 C21 1.536 . S
C932 C456 1.600 . S
C948 C486 0.795 . S
C943 C26 0.823 . S
C964 C545 1.609 1_556 S
C959 C49 1.606 . S
C975 C5 0.957 . S
C980 C558 1.007 . S
C991 C62 1.339 . S
C996 C341 1.310 1_565 S
C1007 C73 1.167 . S
C1012 C359 1.181 . S
C1028 C380 1.594 . S
C1023 C88 1.615 . S
C1044 C418 0.852 . S
C1039 C99 0.833 . S
C1055 C60 1.160 . S
C1060 C452 1.218 . S
C1076 C482 1.505 . S
C1071 C75 1.513 . S
C1092 C529 1.241 . S
C1087 C86 1.174 . S
C1108 C554 0.672 . S
C1103 C101 0.717 . S
C1124 C325 0.705 . S
C1119 C96 0.661 . S
C1140 C584 1.590 . S
C1135 C104 1.562 . S
C1151 C122 1.341 . S
C1156 C626 1.371 . S
C1172 C669 0.377 . S
C1167 C130 0.416 . S
C1183 C57 1.306 . S
C1188 C550 1.307 . S
C1204 C388 1.487 . S
C1199 C70 1.453 . S
C1215 C117 1.252 . S
C1220 C686 1.272 . S
C1236 C737 1.483 . S
C1231 C143 1.466 . S
C1247 C164 1.123 1_455 S
C1252 C320 1.133 1_556 S
C1268 C720 1.874 . S
C1263 C169 1.825 . S
C1279 C192 0.940 . S
C1284 C393 0.914 . S
C1295 C200 1.682 . S
C1300 C703 1.717 . S
C1316 C465 1.662 . S
C1311 C179 1.678 . S
C1332 C631 0.819 . S
C1327 C182 0.879 . S
C1348 C516 1.679 . S
C1343 C203 1.700 . S
C1364 C771 1.036 . S
C1359 C161 0.964 . S
C1380 C312 1.355 . S
C1375 C216 1.407 . S
C1391 C231 1.223 . S
C1396 C724 1.223 . S
C1412 C409 1.712 1_565 S
C1407 C242 1.697 . S
C1423 C257 0.912 . S
C1428 C699 0.930 . S
C1439 C218 1.310 1_565 S
C1444 C461 1.260 . S
C1455 C229 1.625 . S
C1460 C647 1.586 . S
C1476 C520 1.279 . S
C1471 C244 1.287 . S
C1487 C255 0.769 . S
C1492 C767 0.722 . S
C1503 C252 0.677 . S
C1508 C316 0.708 . S
C1519 C260 1.528 . S
C1524 C613 1.644 . S
C1535 C278 1.406 . S
C1540 C499 1.473 . S
C1551 C286 0.443 . S
C1556 C660 0.512 . S
C1572 C783 1.365 . S
C1567 C213 1.345 . S
C1588 C397 1.551 . S
C1583 C226 1.463 . S
C1604 C443 1.325 . S
C1599 C273 1.221 . S
C1620 C354 1.522 . S
C1615 C299 1.522 . S
C1631 C36 0.993 . S
C1636 C805 0.989 . S
C1652 C749 1.780 . S
C1647 C39 1.757 . S
C1668 C826 0.948 . S
C1663 C8 0.945 . S
C1679 C18 1.616 . S
C1684 C694 1.581 . S
C1695 C47 1.557 . S
C1700 C592 1.569 1_556 S
C1716 C622 0.827 . S
C1711 C0 0.848 . S
C1732 C681 1.606 . S
C1727 C23 1.603 . S
C1748 C762 0.985 . S
C1743 C31 0.940 . S
C1764 C817 1.309 . S
C1759 C153 1.338 . S
C1775 C112 1.149 . S
C1780 C733 1.156 . S
C1791 C127 1.624 . S
C1796 C822 1.605 . S
C1812 C690 0.812 . S
C1807 C138 0.771 . S
C1828 C588 1.244 . S
C1823 C151 1.189 . S
C1839 C114 1.510 . S
C1844 C618 1.493 . S
C1860 C665 1.247 . S
C1855 C125 1.185 . S
C1871 C140 0.730 . S
C1876 C758 0.765 . S
C1892 C801 0.763 . S
C1887 C135 0.666 . S
C1908 C448 1.582 . S
C1903 C65 1.543 . S
C1924 C490 1.405 . S
C1919 C83 1.404 . S
C1935 C91 0.443 . S
C1940 C533 0.416 . S
C1956 C754 1.303 . S
C1951 C148 1.310 . S
C1967 C109 1.518 . S
C1972 C830 1.497 . S
C1988 C414 1.262 . S
C1983 C78 1.217 . S
C2004 C363 1.457 . S
C1999 C52 1.418 . S
C2015 C190 1.123 . S
C2020 C796 1.137 . S
C2036 C346 1.847 . S
C2031 C195 1.865 . S
C2052 C835 0.950 . S
C2047 C166 0.959 . S
C2063 C174 1.664 . S
C2068 C431 1.699 . S
C2079 C205 1.685 . S
C2084 C601 1.673 . S
C2095 C156 0.872 . S
C2100 C495 0.824 . S
C2111 C177 1.661 . S
C2116 C652 1.703 . S
C2127 C187 1.077 . S
C2132 C567 1.070 . S
C2148 C788 1.369 . S
C2143 C307 1.414 . S
C2159 C270 1.194 . S
C2164 C350 1.169 . S
C2180 C851 1.672 . S
C2175 C281 1.725 . S
C2191 C296 0.973 . S
C2196 C427 0.962 . S
C2207 C309 1.312 . S
C2212 C597 1.277 . S
C2228 C511 1.574 . S
C2223 C268 1.639 . S
C2239 C283 1.274 . S
C2244 C656 1.251 . S
C2260 C563 0.748 . S
C2255 C294 0.746 . S
C2276 C792 0.794 . S
C2271 C291 0.852 . S
C2292 C477 1.649 . S
C2287 C221 1.560 . S
C2303 C239 1.413 . S
C2308 C635 1.475 . S
C2324 C524 0.482 . S
C2319 C247 0.460 . S
C2340 C579 1.350 . S
C2335 C304 1.304 . S
C2351 C265 1.551 . S
C2356 C839 1.592 . S
C2372 C715 1.331 . S
C2367 C234 1.224 . S
C2388 C728 1.539 . S
C2383 C208 1.497 . S
