# Generated by pormake.
# Topology apo, (3,6)-cn, num edge types: 1
# Building blocks:
#     Node 0, Type 0, BuildingBlock: WUSLED_clean_sbu_0, # of connection points: 3
#     Node 1, Type 0, BuildingBlock: WUSLED_clean_sbu_0, # of connection points: 3
#     Node 2, Type 0, BuildingBlock: WUSLED_clean_sbu_0, # of connection points: 3
#     Node 3, Type 0, BuildingBlock: WUSLED_clean_sbu_0, # of connection points: 3
#     Node 4, Type 0, BuildingBlock: WUSLED_clean_sbu_0, # of connection points: 3
#     Node 5, Type 0, BuildingBlock: WUSLED_clean_sbu_0, # of connection points: 3
#     Node 6, Type 0, BuildingBlock: WUSLED_clean_sbu_0, # of connection points: 3
#     Node 7, Type 0, BuildingBlock: WUSLED_clean_sbu_0, # of connection points: 3
#     Node 8, Type 1, BuildingBlock: KUMBUR_clean_sbu_1, # of connection points: 6
#     Node 9, Type 1, BuildingBlock: KUMBUR_clean_sbu_1, # of connection points: 6
#     Node 10, Type 1, BuildingBlock: KUMBUR_clean_sbu_1, # of connection points: 6
#     Node 11, Type 1, BuildingBlock: KUMBUR_clean_sbu_1, # of connection points: 6
#     Edge 12, Type (0, 1), BuildingBlock: AJUNOK_clean_linker_0, # of connection points: 2
#     Edge 13, Type (0, 1), BuildingBlock: AJUNOK_clean_linker_0, # of connection points: 2
#     Edge 14, Type (0, 1), BuildingBlock: AJUNOK_clean_linker_0, # of connection points: 2
#     Edge 15, Type (0, 1), BuildingBlock: AJUNOK_clean_linker_0, # of connection points: 2
#     Edge 16, Type (0, 1), BuildingBlock: AJUNOK_clean_linker_0, # of connection points: 2
#     Edge 17, Type (0, 1), BuildingBlock: AJUNOK_clean_linker_0, # of connection points: 2
#     Edge 18, Type (0, 1), BuildingBlock: AJUNOK_clean_linker_0, # of connection points: 2
#     Edge 19, Type (0, 1), BuildingBlock: AJUNOK_clean_linker_0, # of connection points: 2
#     Edge 20, Type (0, 1), BuildingBlock: AJUNOK_clean_linker_0, # of connection points: 2
#     Edge 21, Type (0, 1), BuildingBlock: AJUNOK_clean_linker_0, # of connection points: 2
#     Edge 22, Type (0, 1), BuildingBlock: AJUNOK_clean_linker_0, # of connection points: 2
#     Edge 23, Type (0, 1), BuildingBlock: AJUNOK_clean_linker_0, # of connection points: 2
#     Edge 24, Type (0, 1), BuildingBlock: AJUNOK_clean_linker_0, # of connection points: 2
#     Edge 25, Type (0, 1), BuildingBlock: AJUNOK_clean_linker_0, # of connection points: 2
#     Edge 26, Type (0, 1), BuildingBlock: AJUNOK_clean_linker_0, # of connection points: 2
#     Edge 27, Type (0, 1), BuildingBlock: AJUNOK_clean_linker_0, # of connection points: 2
#     Edge 28, Type (0, 1), BuildingBlock: AJUNOK_clean_linker_0, # of connection points: 2
#     Edge 29, Type (0, 1), BuildingBlock: AJUNOK_clean_linker_0, # of connection points: 2
#     Edge 30, Type (0, 1), BuildingBlock: AJUNOK_clean_linker_0, # of connection points: 2
#     Edge 31, Type (0, 1), BuildingBlock: AJUNOK_clean_linker_0, # of connection points: 2
#     Edge 32, Type (0, 1), BuildingBlock: AJUNOK_clean_linker_0, # of connection points: 2
#     Edge 33, Type (0, 1), BuildingBlock: AJUNOK_clean_linker_0, # of connection points: 2
#     Edge 34, Type (0, 1), BuildingBlock: AJUNOK_clean_linker_0, # of connection points: 2
#     Edge 35, Type (0, 1), BuildingBlock: AJUNOK_clean_linker_0, # of connection points: 2
# Relax obj value: 0.008
# Max RMSD: 0.111
# Mean RMSD: 0.083
data_MOF--net-apo--node1-WUSLED_clean_sbu_0--node2-KUMBUR_clean_sbu_1--edge1-AJUNOK_clean_linker_0
_symmetry_space_group_name_H-M    P1
_symmetry_Int_Tables_number       1
_symmetry_cell_setting            triclinic
loop_
_symmetry_equiv_pos_as_xyz
'x, y, z'
_cell_length_a     25.417229
_cell_length_b     43.681158
_cell_length_c     53.280897
_cell_angle_alpha  90.270935
_cell_angle_beta   89.954618
_cell_angle_gamma 90.296296
loop_
_atom_site_label
_atom_site_type_symbol
_atom_site_fract_x
_atom_site_fract_y
_atom_site_fract_z
_atom_type_partial_charge
C0 C 0.3238 0.445 0.37703 0.0
C1 C 0.36317 0.46033 0.39072 0.0
C2 C 0.36967 0.49923 0.35814 0.0
C3 C 0.38594 0.48723 0.38133 0.0
C4 C 0.32904 0.48432 0.34494 0.0
C5 C 0.30645 0.45739 0.35428 0.0
U6 U 0.2956 0.38469 0.42779 0.0
O7 O 0.22458 0.35664 0.43379 0.0
O8 O 0.29958 0.33441 0.42502 0.0
C9 C 0.24869 0.33088 0.42836 0.0
C10 C 0.30157 0.41563 0.38565 0.0
C11 C 0.22181 0.31063 0.41018 0.0
C12 C 0.17942 0.30175 0.36984 0.0
C13 C 0.20606 0.32128 0.38654 0.0
C14 C 0.18494 0.2606 0.40001 0.0
C15 C 0.16811 0.27126 0.37651 0.0
C16 C 0.2114 0.28013 0.4167 0.0
C17 C 0.3415 0.39892 0.49581 0.0
C18 C 0.31165 0.37031 0.53226 0.0
C19 C 0.3832 0.40679 0.53644 0.0
C20 C 0.37933 0.41357 0.51085 0.0
C21 C 0.34932 0.38515 0.54749 0.0
C22 C 0.30791 0.37705 0.50663 0.0
C23 C 0.33662 0.4076 0.46918 0.0
O24 O 0.33592 0.39476 0.39224 0.0
O25 O 0.26135 0.41745 0.40109 0.0
O26 O 0.28876 0.41376 0.46142 0.0
O27 O 0.36356 0.39108 0.45305 0.0
H28 H 0.3768 0.45126 0.40844 0.0
H29 H 0.41655 0.49855 0.39211 0.0
H30 H 0.31582 0.493 0.32702 0.0
H31 H 0.27602 0.44592 0.34349 0.0
H32 H 0.16782 0.31045 0.35167 0.0
H33 H 0.21416 0.3447 0.38107 0.0
H34 H 0.17669 0.23728 0.40569 0.0
H35 H 0.22339 0.27147 0.43483 0.0
H36 H 0.2842 0.35402 0.54026 0.0
H37 H 0.41271 0.41852 0.54762 0.0
H38 H 0.4056 0.43053 0.50285 0.0
H39 H 0.27828 0.36556 0.49535 0.0
C40 C 0.20503 0.16393 0.99993 0.0
C41 C 0.166 0.14165 1.00406 0.0
C42 C 0.16974 0.15125 0.04918 0.0
C43 C 0.14838 0.13546 1.02844 0.0
C44 C 0.20884 0.17356 0.04493 0.0
C45 C 0.22633 0.17981 1.02052 0.0
U46 U 0.21253 0.14312 0.93061 0.0
O47 O 0.20785 0.17148 0.8967 0.0
O48 O 0.27889 0.14458 0.90394 0.0
C49 C 0.25574 0.16458 0.88933 0.0
C50 C 0.22398 0.1705 0.97432 0.0
C51 C 0.28851 0.19022 0.88031 0.0
C52 C 0.32545 0.24148 0.88471 0.0
C53 C 0.29619 0.21698 0.89457 0.0
C54 C 0.3402 0.2125 0.84652 0.0
C55 C 0.3473 0.23961 0.86044 0.0
C56 C 0.31108 0.18811 0.85635 0.0
C57 C 0.13952 0.06982 0.90925 0.0
C58 C 0.15705 0.03813 0.87251 0.0
C59 C 0.07562 0.03166 0.89556 0.0
C60 C 0.09083 0.05501 0.91211 0.0
C61 C 0.10908 0.02246 0.87592 0.0
C62 C 0.17219 0.06161 0.88904 0.0
C63 C 0.1561 0.0926 0.92822 0.0
O64 O 0.25818 0.1509 0.96522 0.0
O65 O 0.1875 0.178 0.95801 0.0
O66 O 0.13566 0.12004 0.92617 0.0
O67 O 0.20643 0.09311 0.9339 0.0
H68 H 0.14923 0.12903 0.98842 0.0
H69 H 0.11841 0.11806 1.03111 0.0
H70 H 0.22544 0.18645 0.06046 0.0
H71 H 0.25644 0.1971 1.01771 0.0
H72 H 0.33109 0.26185 0.89609 0.0
H73 H 0.27924 0.219 0.91316 0.0
H74 H 0.35629 0.21039 0.82775 0.0
H75 H 0.3055 0.16766 0.84504 0.0
H76 H 0.18356 0.03158 0.8575 0.0
H77 H 0.03785 0.02055 0.89829 0.0
H78 H 0.06488 0.06116 0.92745 0.0
H79 H 0.20983 0.07289 0.88636 0.0
C80 C 0.83541 0.08862 0.69707 0.0
C81 C 0.81641 0.05986 0.68908 0.0
C82 C 0.87612 0.03409 0.71776 0.0
C83 C 0.83651 0.0329 0.69936 0.0
C84 C 0.89514 0.06282 0.72565 0.0
C85 C 0.87494 0.08975 0.71546 0.0
U86 U 0.80713 0.14878 0.64579 0.0
O87 O 0.73488 0.17522 0.6392 0.0
O88 O 0.80854 0.199 0.64873 0.0
C89 C 0.75751 0.20135 0.64521 0.0
C90 C 0.81258 0.1176 0.68777 0.0
C91 C 0.72873 0.22045 0.66347 0.0
C92 C 0.71476 0.2398 0.70588 0.0
C93 C 0.74218 0.22096 0.68905 0.0
C94 C 0.65959 0.25734 0.67186 0.0
C95 C 0.6731 0.2582 0.69746 0.0
C96 C 0.68715 0.23867 0.65507 0.0
C97 C 0.85796 0.13708 0.57829 0.0
C98 C 0.87902 0.17558 0.54687 0.0
C99 C 0.86289 0.1231 0.53408 0.0
C100 C 0.85419 0.11503 0.55913 0.0
C101 C 0.87565 0.15343 0.52768 0.0
C102 C 0.86997 0.16753 0.57194 0.0
C103 C 0.85117 0.12749 0.60467 0.0
O104 O 0.84631 0.1393 0.68177 0.0
O105 O 0.77288 0.11543 0.67203 0.0
O106 O 0.803 0.12028 0.61154 0.0
O107 O 0.87673 0.14362 0.62168 0.0
H108 H 0.78551 0.05812 0.67516 0.0
H109 H 0.82024 1.01114 0.69328 0.0
H110 H 0.92574 0.06447 0.73974 0.0
H111 H 0.88991 0.11156 0.72218 0.0
H112 H 0.72676 0.24035 0.72537 0.0
H113 H 0.77411 0.20702 0.69598 0.0
H114 H 0.62746 0.27104 0.66482 0.0
H115 H 0.67604 0.23851 0.63544 0.0
H116 H 0.88861 0.19914 0.54246 0.0
H117 H 0.86083 0.10545 0.51975 0.0
H118 H 0.84523 0.09139 0.56361 0.0
H119 H 0.87292 0.18504 0.58634 0.0
C120 C 0.69126 0.35233 0.07607 0.0
C121 C 0.65271 0.37352 0.06898 0.0
C122 C 0.65776 0.35559 1.02559 0.0
C123 C 0.63593 0.37504 0.04395 0.0
C124 C 0.69682 0.33471 1.03282 0.0
C125 C 0.71342 0.33316 0.0578 0.0
U126 U 0.70068 0.38101 0.14425 0.0
O127 O 0.68988 0.35541 0.17946 0.0
O128 O 0.76564 0.37767 0.1713 0.0
C129 C 0.739 0.35959 0.18642 0.0
C130 C 0.70769 0.34907 0.10245 0.0
C131 C 0.76663 0.33242 0.1961 0.0
C132 C 0.83817 0.29557 0.19458 0.0
C133 C 0.80997 0.31952 0.18358 0.0
C134 C 0.7789 0.29632 0.23018 0.0
C135 C 0.8236 0.28421 0.21827 0.0
C136 C 0.75091 0.32026 0.21925 0.0
C137 C 0.64259 0.45856 0.16324 0.0
C138 C 0.66497 0.48814 0.20064 0.0
C139 C 0.58541 0.49947 0.17757 0.0
C140 C 0.59695 0.47606 0.16049 0.0
C141 C 0.61937 0.50592 0.19778 0.0
C142 C 0.67638 0.46456 0.18357 0.0
C143 C 0.65432 0.43458 0.14449 0.0
O144 O 0.74472 0.36798 0.1102 0.0
O145 O 0.66946 0.34554 0.11884 0.0
O146 O 0.62859 0.40863 0.14718 0.0
O147 O 0.70422 0.43082 0.13879 0.0
H148 H 0.63514 0.38855 0.08284 0.0
H149 H 0.60574 0.39131 0.03894 0.0
H150 H 0.71352 0.31893 1.01929 0.0
H151 H 0.74301 0.31655 0.06294 0.0
H152 H 0.87237 0.28661 0.18495 0.0
H153 H 0.82278 0.32837 0.16562 0.0
H154 H 0.76597 0.28753 0.24815 0.0
H155 H 0.71746 0.32973 0.22918 0.0
H156 H 0.69236 0.49285 0.21574 0.0
H157 H 0.54974 0.51255 0.17497 0.0
H158 H 0.57029 0.47173 0.145 0.0
H159 H 0.71182 0.45126 0.18611 0.0
C160 C 0.6885 0.58381 0.69842 0.0
C161 C 0.64175 0.57212 0.68798 0.0
C162 C 0.64465 0.52852 0.71631 0.0
C163 C 0.61986 0.5448 0.69696 0.0
C164 C 0.69189 0.54001 0.7264 0.0
C165 C 0.71354 0.56743 0.71755 0.0
U166 U 0.71892 0.64401 0.64803 0.0
O167 O 0.71543 0.69425 0.65014 0.0
O168 O 0.79074 0.67168 0.64249 0.0
C169 C 0.7667 0.6975 0.64785 0.0
C170 C 0.71113 0.61328 0.69016 0.0
C171 C 0.79345 0.7179 0.66623 0.0
C172 C 0.79185 0.75186 0.70271 0.0
C173 C 0.76617 0.73142 0.68642 0.0
C174 C 0.87267 0.74525 0.6793 0.0
C175 C 0.84527 0.75914 0.6992 0.0
C176 C 0.84696 0.72501 0.66293 0.0
C177 C 0.67354 0.62727 0.57935 0.0
C178 C 0.70238 0.61931 0.53613 0.0
C179 C 0.61764 0.64226 0.54432 0.0
C180 C 0.62674 0.64016 0.57018 0.0
C181 C 0.65496 0.63133 0.52702 0.0
C182 C 0.71159 0.6173 0.56197 0.0
C183 C 0.67941 0.62053 0.60653 0.0
O184 O 0.75215 0.61148 0.67521 0.0
O185 O 0.67737 0.63438 0.68334 0.0
O186 O 0.65188 0.63719 0.62239 0.0
O187 O 0.72706 0.61451 0.61469 0.0
H188 H 0.62186 0.58425 0.67308 0.0
H189 H 0.58349 0.53638 0.68882 0.0
H190 H 0.71138 0.52818 0.74158 0.0
H191 H 0.74956 0.57609 0.72589 0.0
H192 H 0.76997 0.76191 0.71811 0.0
H193 H 0.72491 0.72645 0.68957 0.0
H194 H 0.9138 0.75056 0.67609 0.0
H195 H 0.86885 0.71513 0.64745 0.0
H196 H 0.73179 0.61066 0.52323 0.0
H197 H 0.58022 0.65101 0.5379 0.0
H198 H 0.59612 0.64752 0.58297 0.0
H199 H 0.74775 0.60685 0.56829 0.0
C200 C 0.80181 0.87137 0.06935 0.0
C201 C 0.8081 0.90213 0.0624 0.0
C202 C 0.83277 0.88672 1.01991 0.0
C203 C 0.82325 0.90972 0.03794 0.0
C204 C 0.82736 0.8559 1.0271 0.0
C205 C 0.81186 0.84832 0.05157 0.0
U206 U 0.79146 0.89008 0.13913 0.0
O207 O 0.7264 0.88416 0.16591 0.0
O208 O 0.80155 0.86097 0.17252 0.0
C209 C 0.75257 0.8647 0.17986 0.0
C210 C 0.785 0.86313 0.09501 0.0
C211 C 0.724 0.83703 0.18856 0.0
C212 C 0.64598 0.80431 0.18946 0.0
C213 C 0.67455 0.82855 0.17881 0.0
C214 C 0.71628 0.79606 0.21924 0.0
C215 C 0.66622 0.78812 0.21004 0.0
C216 C 0.74469 0.82032 0.20869 0.0
C217 C 0.85174 0.96721 0.16184 0.0
C218 C 0.91554 0.9901 0.1906 0.0
C219 C 0.83286 1.01561 0.18297 0.0
C220 C 0.81793 0.99201 0.16654 0.0
C221 C 0.88215 1.01512 0.19489 0.0
C222 C 0.90067 0.96651 0.17417 0.0
C223 C 0.83825 0.9438 0.14251 0.0
O224 O 0.82318 0.85784 0.11101 0.0
O225 O 0.74712 0.87991 0.10463 0.0
O226 O 0.78817 0.94036 0.1369 0.0
O227 O 0.86357 0.91766 0.14356 0.0
H228 H 0.80096 0.92032 0.07586 0.0
H229 H 0.82686 0.93367 1.03303 0.0
H230 H 0.83558 0.83761 1.0139 0.0
H231 H 0.80776 0.82444 0.05663 0.0
H232 H 0.60791 0.79833 0.18168 0.0
H233 H 0.65747 0.84095 0.1633 0.0
H234 H 0.73281 0.78406 0.23512 0.0
H235 H 0.78244 0.82655 0.21672 0.0
H236 H 0.9539 0.9892 0.19941 0.0
H237 H 0.80597 0.03437 0.18622 0.0
H238 H 0.78022 0.99351 0.15718 0.0
H239 H 0.9281 0.94807 0.17072 0.0
C240 C 0.17764 0.93866 0.36911 0.0
C241 C 0.19886 0.96735 0.37592 0.0
C242 C 0.14018 0.99304 0.34671 0.0
C243 C 0.18023 0.99421 0.36488 0.0
C244 C 0.11838 0.96443 0.34023 0.0
C245 C 0.13714 0.93755 0.35119 0.0
U246 U 0.20372 0.88055 0.42219 0.0
O247 O 0.20268 0.83022 0.42094 0.0
O248 O 0.27598 0.8546 0.43007 0.0
C249 C 0.25369 0.82817 0.4247 0.0
C250 C 0.19925 0.90972 0.3792 0.0
C251 C 0.28309 0.80821 0.4072 0.0
C252 C 0.29499 0.7842 0.36622 0.0
C253 C 0.26728 0.80408 0.38212 0.0
C254 C 0.3555 0.77305 0.39999 0.0
C255 C 0.33902 0.76813 0.37509 0.0
C256 C 0.32766 0.79275 0.41589 0.0
C257 C 0.15123 0.89875 0.48908 0.0
C258 C 0.18194 0.87927 0.52921 0.0
C259 C 0.10261 0.90964 0.52742 0.0
C260 C 0.10826 0.91212 0.50139 0.0
C261 C 0.1398 0.89361 0.5417 0.0
C262 C 0.1876 0.8818 0.5031 0.0
C263 C 0.15885 0.90478 0.46207 0.0
O264 O 0.23902 0.9121 0.39487 0.0
O265 O 0.16484 0.88867 0.38584 0.0
O266 O 0.13389 0.88655 0.44635 0.0
O267 O 0.20708 0.91136 0.45489 0.0
H268 H 0.23032 0.96911 0.38955 0.0
H269 H 0.19783 1.01591 0.37025 0.0
H270 H 0.0866 0.9628 0.32675 0.0
H271 H 0.1202 0.9158 0.34548 0.0
H272 H 0.28145 0.78098 0.34711 0.0
H273 H 0.23327 0.81598 0.37487 0.0
H274 H 0.3901 0.76172 0.40721 0.0
H275 H 0.34089 0.79585 0.43507 0.0
H276 H 0.21173 0.86721 0.53973 0.0
H277 H 0.0697 0.92084 0.53648 0.0
H278 H 0.07976 0.92529 0.49093 0.0
H279 H 0.22116 0.87133 0.49399 0.0
C280 C 0.32198 0.67419 0.99607 0.0
C281 C 0.30444 0.65158 1.01292 0.0
C282 C 0.36059 0.67267 0.04589 0.0
C283 C 0.32358 0.65085 0.03758 0.0
C284 C 0.37862 0.69493 1.02893 0.0
C285 C 0.35932 0.69578 1.00437 0.0
U286 U 0.3018 0.64452 0.92846 0.0
O287 O 0.23183 0.64611 0.90408 0.0
O288 O 0.30492 0.6692 0.89264 0.0
C289 C 0.25494 0.66412 0.88768 0.0
C290 C 0.30046 0.67665 0.97026 0.0
C291 C 0.22378 0.69027 0.87845 0.0
C292 C 0.21531 0.7441 0.86752 0.0
C293 C 0.24355 0.72041 0.8788 0.0
C294 C 0.14646 0.70818 0.85607 0.0
C295 C 0.16694 0.73811 0.85562 0.0
C296 C 0.17474 0.68451 0.86724 0.0
C297 C 0.36123 0.56815 0.90722 0.0
C298 C 0.406 0.55045 0.8694 0.0
C299 C 0.35003 0.51562 0.89259 0.0
C300 C 0.33889 0.53887 0.90991 0.0
C301 C 0.38399 0.52108 0.87224 0.0
C302 C 0.39465 0.57376 0.88664 0.0
C303 C 0.35114 0.59194 0.92655 0.0
O304 O 0.33511 0.68111 0.95228 0.0
O305 O 0.26288 0.6573 0.96387 0.0
O306 O 0.30212 0.59458 0.93415 0.0
O307 O 0.37485 0.6185 0.92349 0.0
H308 H 0.27568 0.63457 1.00717 0.0
H309 H 0.30952 0.63317 0.05014 0.0
H310 H 0.40687 0.71215 0.03485 0.0
H311 H 0.37322 0.71361 0.99191 0.0
H312 H 0.23199 0.76697 0.86751 0.0
H313 H 0.28128 0.72561 0.88728 0.0
H314 H 0.10869 0.703 0.84762 0.0
H315 H 0.15867 0.66148 0.86669 0.0
H316 H 0.43337 0.55519 0.85431 0.0
H317 H 0.33251 0.49322 0.89528 0.0
H318 H 0.3133 0.53382 0.92564 0.0
H319 H 0.41291 0.59598 0.88406 0.0
Tb320 Tb 0.06192 0.15567 0.25853 0.0
C321 C 0.84124 0.12466 0.2927 0.0
N322 N 0.86818 0.15089 0.29782 0.0
C323 C 0.79314 0.18038 0.28542 0.0
C324 C 0.79019 0.12524 0.28241 0.0
C325 C 0.84332 0.17846 0.29605 0.0
C326 C 0.76688 0.15366 0.27803 0.0
C327 C 0.83567 0.06947 0.29665 0.0
C328 C 0.86331 0.09722 0.29978 0.0
C329 C 0.78604 0.06966 0.28506 0.0
C330 C 0.76334 0.09752 0.27793 0.0
Tb331 Tb 0.9521 0.14469 0.31284 0.0
N332 N 0.91166 0.09798 0.31054 0.0
C333 C 0.85825 0.04258 0.30586 0.0
C334 C 0.93233 0.07227 0.32112 0.0
C335 C 0.90637 0.04409 0.31856 0.0
H336 H 0.86174 0.19904 0.30313 0.0
H337 H 0.9235 0.02357 0.32632 0.0
H338 H 0.166 0.12311 0.28322 0.0
H339 H 0.03044 0.27167 0.22586 0.0
H340 H 0.96941 0.07347 0.33098 0.0
H341 H 0.83827 0.02074 0.30385 0.0
H342 H 0.01441 0.21618 0.22692 0.0
H343 H 0.77439 0.20242 0.28336 0.0
H344 H 0.76431 0.04854 0.28217 0.0
H345 H 0.72432 0.09746 0.26975 0.0
H346 H 0.25108 0.13952 0.30168 0.0
H347 H 0.72771 0.15515 0.27013 0.0
H348 H 0.10641 0.29398 0.24864 0.0
N349 N 0.14158 0.1685 0.27524 0.0
C350 C 0.15493 0.19861 0.2748 0.0
C351 C 0.22419 0.15639 0.29434 0.0
C352 C 0.2026 0.20908 0.28527 0.0
C353 C 0.17608 0.14716 0.28394 0.0
C354 C 0.23724 0.18752 0.2953 0.0
N355 N 0.07576 0.20727 0.25312 0.0
C356 C 0.04555 0.22565 0.23831 0.0
C357 C 0.13246 0.25026 0.26286 0.0
C358 C 0.1202 0.21878 0.26387 0.0
C359 C 0.09849 0.26963 0.24985 0.0
C360 C 0.05546 0.25715 0.23707 0.0
H361 H 0.27434 0.19462 0.30353 0.0
H362 H 0.25017 0.2492 0.29353 0.0
H363 H 0.18878 0.28531 0.27381 0.0
O364 O 0.09222 0.16471 0.22237 0.0
O365 O 0.07661 0.16716 0.29822 0.0
O366 O 0.99915 0.18685 0.31238 0.0
O367 O 0.09924 0.12022 0.23864 0.0
O368 O 0.98288 0.17457 0.25177 0.0
O369 O 0.95131 0.18762 0.29115 0.0
O370 O 0.97608 0.13882 0.35032 0.0
O371 O 0.96202 0.11 0.2831 0.0
O372 O 0.98479 0.13708 0.24802 0.0
O373 O 0.89838 0.15424 0.34193 0.0
O374 O 0.02818 0.12188 0.3185 0.0
O375 O 0.06542 0.11212 0.27918 0.0
C376 C 0.05074 0.18754 0.31142 0.0
C377 C 0.08663 0.12252 0.19461 0.0
C378 C 0.08964 0.11954 0.14868 0.0
C379 C 0.05065 0.0966 0.14938 0.0
C380 C 0.04812 0.09933 0.19473 0.0
C381 C 0.03022 0.08657 0.17224 0.0
C382 C 0.10731 0.13255 0.17149 0.0
C383 C 0.95251 0.19121 0.26656 0.0
C384 C 0.10523 0.13642 0.21841 0.0
C385 C 0.21403 0.24058 0.28529 0.0
C386 C 0.17896 0.26115 0.27414 0.0
C387 C 0.96097 0.11381 0.25871 0.0
C388 C 0.93615 0.17168 0.37973 0.0
C389 C 0.92657 0.18534 0.42406 0.0
C390 C 0.94428 0.21512 0.41849 0.0
C391 C 0.95313 0.20158 0.37454 0.0
C392 C 0.92307 0.16362 0.40447 0.0
C393 C 0.95742 0.22312 0.39388 0.0
C394 C 0.05764 0.10534 0.30313 0.0
C395 C 0.932 0.14864 0.3596 0.0
H396 H 0.03651 0.08604 0.13221 0.0
H397 H 0.03194 0.09097 0.2122 0.0
H398 H 1.00057 0.06869 0.17254 0.0
H399 H 0.13669 0.15062 0.17128 0.0
H400 H 0.94734 0.23233 0.43312 0.0
H401 H 0.96293 0.20822 0.35558 0.0
H402 H 0.91072 0.14036 0.40847 0.0
H403 H 0.97074 0.24614 0.38977 0.0
Tb404 Tb 0.44466 0.37851 0.76124 0.0
C405 C 0.6814 0.39361 0.7981 0.0
N406 N 0.64938 0.36872 0.79996 0.0
C407 C 0.72132 0.33581 0.7892 0.0
C408 C 0.73478 0.3906 0.79142 0.0
C409 C 0.66869 0.33996 0.79604 0.0
C410 C 0.75449 0.36124 0.7868 0.0
C411 C 0.69192 0.44878 0.80077 0.0
C412 C 0.66033 0.42231 0.80272 0.0
C413 C 0.7452 0.44592 0.79417 0.0
C414 C 0.76658 0.4169 0.78952 0.0
Tb415 Tb 0.56432 0.3786 0.81093 0.0
N416 N 0.60819 0.42424 0.80828 0.0
C417 C 0.66888 0.4773 0.80538 0.0
C418 C 0.58618 0.45183 0.81404 0.0
C419 C 0.6159 0.47879 0.81226 0.0
H420 H 0.64386 0.32011 0.79871 0.0
H421 H 0.59798 0.50068 0.81633 0.0
H422 H 0.35316 0.42686 0.78089 0.0
H423 H 0.44269 0.25557 0.74687 0.0
H424 H 0.54586 0.45323 0.81996 0.0
H425 H 0.69174 0.49823 0.80394 0.0
H426 H 0.4787 0.30751 0.74299 0.0
H427 H 0.73637 0.31299 0.78599 0.0
H428 H 0.77013 0.46601 0.7925 0.0
H429 H 0.8077 0.41506 0.78437 0.0
H430 H 0.26247 0.42377 0.7973 0.0
H431 H 0.79528 0.35794 0.78156 0.0
H432 H 0.35433 0.24757 0.76528 0.0
N433 N 0.3603 0.37874 0.77576 0.0
C434 C 0.33634 0.35092 0.7774 0.0
C435 C 0.28288 0.4031 0.79183 0.0
C436 C 0.2846 0.34808 0.78661 0.0
C437 C 0.33443 0.40475 0.78271 0.0
C438 C 0.25786 0.37465 0.79383 0.0
N439 N 0.41473 0.32892 0.76179 0.0
C440 C 0.4417 0.30449 0.75238 0.0
C441 C 0.34141 0.29585 0.77204 0.0
C442 C 0.36451 0.32515 0.77026 0.0
C443 C 0.37058 0.2705 0.76416 0.0
C444 C 0.42061 0.27491 0.75392 0.0
H445 H 0.21804 0.37344 0.80104 0.0
H446 H 0.22199 0.3162 0.79585 0.0
H447 H 0.27171 0.27047 0.78311 0.0
O448 O 0.45162 0.37037 0.72239 0.0
O449 O 0.43328 0.3593 0.79914 0.0
O450 O 0.5127 0.33833 0.80988 0.0
O451 O 0.39194 0.4003 0.73661 0.0
O452 O 0.52094 0.35857 0.75053 0.0
O453 O 0.55527 0.33842 0.78686 0.0
O454 O 0.55251 0.39173 0.84855 0.0
O455 O 0.57637 0.40343 0.77526 0.0
O456 O 0.4948 0.41925 0.76101 0.0
O457 O 0.61096 0.35839 0.83895 0.0
O458 O 0.49074 0.40217 0.82065 0.0
O459 O 0.45015 0.41995 0.7845 0.0
C460 C 0.46112 0.33893 0.8113 0.0
C461 C 0.37318 0.37316 0.69891 0.0
C462 C 0.34511 0.36371 0.65557 0.0
C463 C 0.3032 0.34578 0.66464 0.0
C464 C 0.33092 0.35523 0.70743 0.0
C465 C 0.29625 0.34162 0.69039 0.0
C466 C 0.37994 0.37752 0.67291 0.0
C467 C 0.55325 0.34003 0.76227 0.0
C468 C 0.41101 0.38697 0.71676 0.0
C469 C 0.26161 0.31888 0.78865 0.0
C470 C 0.28999 0.29284 0.78145 0.0
C471 C 0.54644 0.42128 0.76147 0.0
C472 C 0.57111 0.35416 0.87879 0.0
C473 C 0.57571 0.34335 0.92376 0.0
C474 C 0.53962 0.31918 0.92023 0.0
C475 C 0.53567 0.32976 0.87573 0.0
C476 C 0.59094 0.36099 0.90284 0.0
C477 C 0.5198 0.31249 0.89638 0.0
C478 C 0.46026 0.42171 0.8088 0.0
C479 C 0.58743 0.37276 0.85714 0.0
H480 H 0.27525 0.33537 0.65181 0.0
H481 H 0.32445 0.35183 0.72719 0.0
H482 H 0.26368 0.3279 0.69717 0.0
H483 H 0.41251 0.39134 0.66617 0.0
H484 H 0.52737 0.3051 0.93588 0.0
H485 H 0.52045 0.32404 0.85741 0.0
H486 H 0.61785 0.38011 0.90524 0.0
H487 H 0.49233 0.2937 0.89384 0.0
Tb488 Tb 0.06748 0.88323 0.7589 0.0
C489 C 0.85295 0.84449 0.80438 0.0
N490 N 0.87234 0.87319 0.80121 0.0
C491 C 0.78987 0.88939 0.78416 0.0
C492 C 0.80184 0.83661 0.79641 0.0
C493 C 0.84121 0.89595 0.79209 0.0
C494 C 0.77034 0.85948 0.78599 0.0
C495 C 0.86535 0.79351 0.82076 0.0
C496 C 0.88433 0.82337 0.81632 0.0
C497 C 0.8154 0.78492 0.81175 0.0
C498 C 0.78364 0.80647 0.79964 0.0
Tb499 Tb 0.95641 0.88167 0.81428 0.0
N500 N 0.93193 0.83281 0.82508 0.0
C501 C 0.89626 0.77364 0.83496 0.0
C502 C 0.95969 0.81445 0.84094 0.0
C503 C 0.94315 0.78439 0.84552 0.0
H504 H 0.85614 0.91908 0.79074 0.0
H505 H 0.9661 0.76972 0.85758 0.0
H506 H 0.15133 0.82864 0.77807 0.0
H507 H 0.10628 1.00041 0.734 0.0
H508 H 0.9941 0.82298 0.85057 0.0
H509 H 0.88318 0.75049 0.83881 0.0
H510 H 0.05568 0.95178 0.73465 0.0
H511 H 0.76552 0.90734 0.77654 0.0
H512 H 0.80034 0.76197 0.81475 0.0
H513 H 0.74467 0.79979 0.79337 0.0
H514 H 0.23647 0.82652 0.79963 0.0
H515 H 0.7307 0.85442 0.7797 0.0
H516 H 0.1915 1.00417 0.75636 0.0
N517 N 0.14879 0.87743 0.77715 0.0
C518 C 0.17802 0.90348 0.77944 0.0
C519 C 0.22003 0.84844 0.79453 0.0
C520 C 0.22843 0.90323 0.79046 0.0
C521 C 0.17075 0.84983 0.78293 0.0
C522 C 0.2486 0.87534 0.79877 0.0
N523 N 0.11091 0.92901 0.75784 0.0
C524 C 0.09261 0.95345 0.74459 0.0
C525 C 0.18911 0.95719 0.76916 0.0
C526 C 0.15892 0.93008 0.76897 0.0
C527 C 0.1694 0.9829 0.75675 0.0
C528 C 0.12127 0.98088 0.74411 0.0
H529 H 0.28715 0.87413 0.80736 0.0
H530 H 0.2965 0.93084 0.80043 0.0
H531 H 0.262 0.97813 0.78173 0.0
O532 O 0.05188 0.88803 0.72013 0.0
O533 O 0.06154 0.92121 0.78633 0.0
O534 O 0.03853 0.89336 0.81992 0.0
O535 O 0.11959 0.86378 0.73268 0.0
O536 O 0.9933 0.90678 0.75096 0.0
O537 O 0.95614 0.92178 0.78924 0.0
O538 O 0.92862 0.88057 0.85192 0.0
O539 O 0.93524 0.86639 0.77614 0.0
O540 O 0.01154 0.84487 0.76108 0.0
O541 O 0.93763 0.92348 0.83172 0.0
O542 O 0.03131 0.85738 0.82041 0.0
O543 O 0.0607 0.84094 0.78146 0.0
C544 C 0.0577 0.91858 0.81073 0.0
C545 C 0.12786 0.89063 0.69449 0.0
C546 C 0.14882 0.90234 0.65071 0.0
C547 C 0.18996 0.92148 0.65896 0.0
C548 C 0.17019 0.90923 0.70213 0.0
C549 C 0.20064 0.92475 0.68449 0.0
C550 C 0.11756 0.88698 0.66863 0.0
C551 C 0.96404 0.92527 0.76481 0.0
C552 C 0.0951 0.87462 0.71333 0.0
C553 C 0.25787 0.93053 0.79184 0.0
C554 C 0.2383 0.95745 0.78114 0.0
C555 C 0.9599 0.84633 0.76199 0.0
C556 C 0.90664 0.9277 0.87487 0.0
C557 C 0.8832 0.93075 0.91944 0.0
C558 C 0.8783 0.96264 0.91711 0.0
C559 C 0.90135 0.95962 0.87316 0.0
C560 C 0.89723 0.91327 0.89812 0.0
C561 C 0.88717 0.97689 0.89414 0.0
C562 C 0.0556 0.83723 0.80596 0.0
C563 C 0.92499 0.91021 0.85268 0.0
H564 H 0.21455 0.93348 0.64557 0.0
H565 H 0.18021 0.91158 0.7217 0.0
H566 H 0.23297 0.93917 0.69062 0.0
H567 H 0.08536 0.87241 0.6625 0.0
H568 H 0.86722 0.97659 0.93312 0.0
H569 H 0.90868 0.97138 0.85564 0.0
H570 H 0.90211 0.88873 0.89982 0.0
H571 H 0.88329 1.00148 0.89261 0.0
Tb572 Tb 0.45074 0.64851 0.26088 0.0
C573 C 0.68137 0.67395 0.29686 0.0
N574 N 0.65548 0.64673 0.29868 0.0
C575 C 0.73338 0.62 0.2861 0.0
C576 C 0.73433 0.67527 0.28909 0.0
C577 C 0.68069 0.61985 0.29369 0.0
C578 C 0.76029 0.64781 0.2837 0.0
C579 C 0.67895 0.72942 0.29961 0.0
C580 C 0.65404 0.7007 0.30208 0.0
C581 C 0.73177 0.73085 0.29189 0.0
C582 C 0.75939 0.70385 0.28668 0.0
Tb583 Tb 0.56976 0.64971 0.31085 0.0
N584 N 0.60225 0.69851 0.30844 0.0
C585 C 0.64981 0.75583 0.30469 0.0
C586 C 0.57443 0.7241 0.31458 0.0
C587 C 0.59749 0.75313 0.31244 0.0
H588 H 0.66057 0.59821 0.29595 0.0
H589 H 0.57495 0.77339 0.3169 0.0
H590 H 0.36976 0.70667 0.27232 0.0
H591 H 0.41803 0.52663 0.25303 0.0
H592 H 0.53472 0.72241 0.32131 0.0
H593 H 0.66743 0.77836 0.30291 0.0
H594 H 0.46983 0.5744 0.2505 0.0
H595 H 0.75325 0.59865 0.28215 0.0
H596 H 0.75152 0.75273 0.28977 0.0
H597 H 0.80005 0.70534 0.28065 0.0
H598 H 0.27704 0.71325 0.2849 0.0
H599 H 0.80103 0.64784 0.27769 0.0
H600 H 0.3242 0.52845 0.26543 0.0
N601 N 0.36527 0.65801 0.27142 0.0
C602 C 0.33359 0.63294 0.27311 0.0
C603 C 0.29257 0.69051 0.28183 0.0
C604 C 0.28012 0.63565 0.2797 0.0
C605 C 0.34532 0.68667 0.27508 0.0
C606 C 0.25987 0.66489 0.2843 0.0
N607 N 0.40717 0.60275 0.26269 0.0
C608 C 0.42943 0.57542 0.25637 0.0
C609 C 0.32359 0.5778 0.26959 0.0
C610 C 0.35495 0.60441 0.26813 0.0
C611 C 0.34688 0.54948 0.26442 0.0
C612 C 0.39992 0.54834 0.25754 0.0
H613 H 0.21898 0.66795 0.28944 0.0
H614 H 0.2075 0.61077 0.28651 0.0
H615 H 0.24561 0.56012 0.2777 0.0
O616 O 0.46431 0.63538 0.22339 0.0
O617 O 0.43977 0.62124 0.29549 0.0
O618 O 0.5215 0.60822 0.31164 0.0
O619 O 0.40456 0.66814 0.23239 0.0
O620 O 0.52687 0.62754 0.25171 0.0
O621 O 0.56699 0.60834 0.28726 0.0
O622 O 0.56643 0.66527 0.34818 0.0
O623 O 0.58069 0.67083 0.27362 0.0
O624 O 0.49984 0.68984 0.26252 0.0
O625 O 0.61728 0.62821 0.33796 0.0
O626 O 0.4918 0.6669 0.32157 0.0
O627 O 0.45649 0.68809 0.28596 0.0
C628 C 0.47026 0.60422 0.30977 0.0
C629 C 0.44562 0.67257 0.19286 0.0
C630 C 0.44117 0.68406 0.14802 0.0
C631 C 0.47788 0.70788 0.15175 0.0
C632 C 0.48186 0.6965 0.19607 0.0
C633 C 0.49801 0.71401 0.17563 0.0
C634 C 0.42538 0.66632 0.16879 0.0
C635 C 0.5551 0.6066 0.26314 0.0
C636 C 0.42909 0.6539 0.21444 0.0
C637 C 0.24867 0.60917 0.2814 0.0
C638 C 0.27034 0.58032 0.27634 0.0
C639 C 0.55152 0.69056 0.26138 0.0
C640 C 0.58036 0.62771 0.37872 0.0
C641 C 0.5858 0.61701 0.42361 0.0
C642 C 0.54445 0.59576 0.42102 0.0
C643 C 0.53802 0.60716 0.37681 0.0
C644 C 0.60384 0.63295 0.40229 0.0
C645 C 0.52054 0.59103 0.39776 0.0
C646 C 0.45886 0.6856 0.31051 0.0
C647 C 0.59858 0.64452 0.35639 0.0
H648 H 0.4905 0.72207 0.13622 0.0
H649 H 0.49752 0.70158 0.21438 0.0
H650 H 0.52604 0.73249 0.17833 0.0
H651 H 0.39786 0.64752 0.16624 0.0
H652 H 0.52995 0.58327 0.43716 0.0
H653 H 0.5182 0.60384 0.35917 0.0
H654 H 0.63594 0.64925 0.40405 0.0
H655 H 0.48805 0.57504 0.396 0.0
C656 C 0.10829 0.04716 0.34999 0.0
C657 C 0.1208 0.0217 0.33489 0.0
C658 C 0.08878 0.07419 0.33949 0.0
C659 C 0.08138 0.07704 0.31341 0.0
H660 H 0.11265 0.04599 0.37019 0.0
H661 H 0.07918 0.09297 0.352 0.0
S662 S 0.10948 0.01732 0.2655 0.0
N663 N 0.12578 1.00134 0.2924 0.0
N664 N 0.08854 0.05199 0.27267 0.0
C665 C 0.09444 0.05191 0.29802 0.0
C666 C 0.11413 0.0243 0.30875 0.0
C667 C 0.41561 0.46756 0.86553 0.0
C668 C 0.39952 0.49556 0.85522 0.0
C669 C 0.43386 0.44371 0.85027 0.0
C670 C 0.43666 0.44673 0.82399 0.0
H671 H 0.41553 0.46431 0.88567 0.0
H672 H 0.44648 0.42282 0.85928 0.0
S673 S 0.39644 0.51489 0.78749 0.0
N674 N 0.38509 0.52452 0.817 0.0
N675 N 0.4201 0.47977 0.78825 0.0
C676 C 0.41937 0.47433 0.81333 0.0
C677 C 0.40082 0.49873 0.82895 0.0
C678 C 0.56721 0.5008 0.73454 0.0
C679 C 0.62005 0.50035 0.7267 0.0
C680 C 0.5435 0.47494 0.74531 0.0
C681 C 0.57169 0.4476 0.74864 0.0
H682 H 0.54431 0.52153 0.73285 0.0
H683 H 0.50309 0.47668 0.75158 0.0
S684 S 0.70919 0.43345 0.72842 0.0
N685 N 0.69873 0.46966 0.72128 0.0
N686 N 0.65397 0.42089 0.74118 0.0
C687 C 0.62408 0.44655 0.74015 0.0
C688 C 0.64831 0.47296 0.7293 0.0
C689 C 0.92076 0.0349 0.23519 0.0
C690 C 0.89956 0.04088 0.21133 0.0
C691 C 0.9396 0.05869 0.25057 0.0
C692 C 0.93823 0.08935 0.24265 0.0
H693 H 0.92304 1.01162 0.24199 0.0
H694 H 0.95669 0.05287 0.26852 0.0
S695 S 0.88737 0.11726 0.18174 0.0
N696 N 0.87888 0.07978 0.18041 0.0
N697 N 0.91375 0.12446 0.20946 0.0
C698 C 0.91681 0.0957 0.21894 0.0
C699 C 0.89749 0.07149 0.20329 0.0
C700 C 0.90149 1.00332 0.75546 0.0
C701 C 0.89698 1.00558 0.72921 0.0
C702 C 0.92209 0.97705 0.76677 0.0
C703 C 0.93941 0.95199 0.7523 0.0
H704 H 0.8889 0.02204 0.76741 0.0
H705 H 0.9253 0.97671 0.78704 0.0
S706 S 0.93544 0.94631 0.68268 0.0
N707 N 0.91134 0.98051 0.689 0.0
N708 N 0.94924 0.93095 0.71013 0.0
C709 C 0.93443 0.95381 0.72598 0.0
C710 C 0.91338 0.98059 0.71449 0.0
C711 C 0.59173 0.56009 0.20537 0.0
C712 C 0.60735 0.53175 0.21521 0.0
C713 C 0.57679 0.58431 0.22108 0.0
C714 C 0.5768 0.58136 0.24741 0.0
H715 H 0.59062 0.56356 0.18525 0.0
H716 H 0.56443 0.60543 0.21236 0.0
S717 S 0.61547 0.51197 0.28273 0.0
N718 N 0.62276 0.50215 0.25297 0.0
N719 N 0.5952 0.54782 0.2826 0.0
C720 C 0.59385 0.55341 0.25757 0.0
C721 C 0.60898 0.52861 0.24147 0.0
C722 C 0.36655 0.55119 0.33813 0.0
C723 C 0.39626 0.52646 0.34709 0.0
C724 C 0.39088 0.57647 0.32669 0.0
C725 C 0.4458 0.57774 0.32311 0.0
H726 H 0.32413 0.55108 0.34012 0.0
H727 H 0.36627 0.59517 0.32063 0.0
S728 S 0.54124 0.51859 0.3435 0.0
N729 N 0.4834 0.50488 0.35208 0.0
N730 N 0.52914 0.55178 0.33009 0.0
C731 C 0.47594 0.55314 0.33226 0.0
C732 C 0.45118 0.52769 0.34429 0.0
C733 C 0.09844 0.99819 0.83332 0.0
C734 C 0.09486 0.99593 0.8596 0.0
C735 C 0.0858 0.97325 0.81769 0.0
C736 C 0.06992 0.94487 0.82768 0.0
H737 H 0.11056 0.01954 0.82475 0.0
H738 H 0.08839 0.97637 0.79762 0.0
S739 S 0.05554 0.92688 0.89551 0.0
N740 N 0.0748 0.96301 0.89501 0.0
N741 N 0.05185 0.9161 0.86584 0.0
C742 C 0.06634 0.94233 0.85401 0.0
C743 C 0.07862 0.96783 0.86988 0.0
C744 C 0.09626 0.14326 0.08003 0.0
C745 C 0.15063 0.14454 0.07507 0.0
C746 C 0.07706 0.13593 0.10397 0.0
C747 C 0.11139 0.1295 0.12399 0.0
H748 H 0.06825 0.14798 0.06525 0.0
H749 H 0.03486 0.13515 0.10682 0.0
S750 S 0.25717 0.12839 0.12064 0.0
N751 N 0.23856 0.13805 0.09207 0.0
N752 N 0.20246 0.12417 0.13703 0.0
C753 C 0.16585 0.1309 0.11936 0.0
C754 C 0.18544 0.13842 0.09494 0.0
C755 C 0.35428 0.4035 0.59228 0.0
C756 C 0.35198 0.37899 0.575 0.0
C757 C 0.35386 0.39838 0.6183 0.0
C758 C 0.35097 0.36855 0.62806 0.0
H759 H 0.35485 0.42691 0.58565 0.0
H760 H 0.35403 0.41795 0.63086 0.0
S761 S 0.35104 0.2964 0.59104 0.0
N762 N 0.35172 0.32368 0.56968 0.0
N763 N 0.3504 0.31411 0.61849 0.0
C764 C 0.35066 0.34383 0.61104 0.0
C765 C 0.35126 0.34902 0.58457 0.0
C766 C 0.58333 0.35352 0.99472 0.0
C767 C 0.63775 0.35564 0.99931 0.0
C768 C 0.56363 0.35042 0.97023 0.0
C769 C 0.59749 0.34953 0.94929 0.0
H770 H 0.55579 0.3532 1.01024 0.0
H771 H 0.52149 0.34825 0.96769 0.0
S772 S 0.74306 0.35638 0.95103 0.0
N773 N 0.72503 0.35856 0.98077 0.0
N774 N 0.68814 0.3522 0.9348 0.0
C775 C 0.65189 0.35272 0.95356 0.0
C776 C 0.67195 0.35582 0.97852 0.0
C777 C 0.93374 0.17766 0.49519 0.0
C778 C 0.88715 0.16174 0.50117 0.0
C779 C 0.94616 0.18512 0.47027 0.0
C780 C 0.91241 0.17704 0.45033 0.0
H781 H 0.96127 0.18397 0.50986 0.0
H782 H 0.98287 0.19698 0.46656 0.0
S783 S 0.78334 0.1376 0.45625 0.0
N784 N 0.80578 0.13958 0.48529 0.0
N785 N 0.82881 0.15384 0.43852 0.0
C786 C 0.86525 0.16157 0.45612 0.0
C787 C 0.85271 0.15389 0.48149 0.0
C788 C 0.88644 0.91832 0.98997 0.0
C789 C 0.84838 0.89526 0.99381 0.0
C790 C 0.89886 0.92871 0.96581 0.0
C791 C 0.87396 0.91644 0.9444 0.0
H792 H 0.90637 0.92874 1.00584 0.0
H793 H 0.92764 0.94694 0.96389 0.0
S794 S 0.77196 0.85548 0.94389 0.0
N795 N 0.78622 0.86025 0.9739 0.0
N796 N 0.81016 0.87965 0.92848 0.0
C797 C 0.83711 0.89272 0.9478 0.0
C798 C 0.82419 0.88218 0.97247 0.0
C799 C 0.64717 0.60128 0.48707 0.0
C800 C 0.64215 0.62945 0.49979 0.0
C801 C 0.63048 0.59776 0.46214 0.0
C802 C 0.60894 0.62239 0.44881 0.0
H803 H 0.66222 0.58143 0.49679 0.0
H804 H 0.63343 0.57542 0.45335 0.0
S805 S 0.58986 0.70131 0.47285 0.0
N806 N 0.61594 0.68276 0.49673 0.0
N807 N 0.58498 0.67612 0.44973 0.0
C808 C 0.60538 0.65095 0.46091 0.0
C809 C 0.62178 0.65447 0.48644 0.0
C810 C 0.43445 0.67482 0.07702 0.0
C811 C 0.38012 0.67281 0.07223 0.0
C812 C 0.4538 0.67744 0.10159 0.0
C813 C 0.41962 0.67828 0.1224 0.0
H814 H 0.46227 0.67467 0.06161 0.0
H815 H 0.49595 0.67919 0.1043 0.0
S816 S 0.27384 0.67436 0.11998 0.0
N817 N 0.29233 0.67188 0.09032 0.0
N818 N 0.32864 0.67703 0.13649 0.0
C819 C 0.36521 0.6757 0.11791 0.0
C820 C 0.3455 0.67292 0.09285 0.0
C821 C 0.1313 0.92272 0.58209 0.0
C822 C 0.13712 0.89442 0.56966 0.0
C823 C 0.13301 0.92484 0.60835 0.0
C824 C 0.1399 0.89871 0.62328 0.0
H825 H 0.12732 0.94362 0.57141 0.0
H826 H 0.13009 0.94724 0.61704 0.0
S827 S 0.15358 0.81894 0.60023 0.0
N828 N 0.14746 0.83945 0.57443 0.0
N829 N 0.15052 0.8435 0.62387 0.0
C830 C 0.14378 0.87012 0.61122 0.0
C831 C 0.1426 0.86797 0.58441 0.0
C832 C 0.15694 0.22102 0.35387 0.0
C833 C 0.13819 0.2506 0.3593 0.0
C834 C 0.12854 0.20085 0.33829 0.0
C835 C 0.08018 0.2094 0.32764 0.0
H836 H 0.19396 0.21342 0.36167 0.0
H837 H 0.14433 0.17824 0.33483 0.0
S838 S 0.01374 0.28411 0.33609 0.0
N839 N 0.06791 0.28723 0.35299 0.0
N840 N 0.01519 0.24956 0.32343 0.0
C841 C 0.06111 0.23888 0.33287 0.0
C842 C 0.09001 0.25944 0.34868 0.0
C843 C 0.42584 0.26072 0.8375 0.0
C844 C 0.37696 0.26576 0.84927 0.0
C845 C 0.45341 0.28463 0.82577 0.0
C846 C 0.43293 0.31446 0.82513 0.0
H847 H 0.44288 0.23804 0.83729 0.0
H848 H 0.49049 0.27956 0.81665 0.0
S849 S 0.30746 0.34009 0.85372 0.0
N850 N 0.30968 0.30307 0.85975 0.0
N851 N 0.36195 0.34806 0.83813 0.0
C852 C 0.3846 0.31996 0.83715 0.0
C853 C 0.35657 0.29564 0.84914 0.0
C854 C 0.63398 0.30926 0.70799 0.0
C855 C 0.64422 0.27882 0.715 0.0
C856 C 0.60508 0.32892 0.72356 0.0
C857 C 0.58563 0.31903 0.74687 0.0
H858 H 0.64844 0.318 0.69027 0.0
H859 H 0.59803 0.35211 0.71731 0.0
S860 S 0.59902 0.24125 0.77359 0.0
N861 N 0.63086 0.2395 0.74659 0.0
N862 N 0.57705 0.27665 0.77596 0.0
C863 C 0.59571 0.28878 0.75425 0.0
C864 C 0.62493 0.26865 0.73831 0.0
C865 C 0.87116 0.23385 0.2181 0.0
C866 C 0.85599 0.26058 0.23097 0.0
C867 C 0.90198 0.21148 0.22983 0.0
C868 C 0.91908 0.21505 0.25483 0.0
H869 H 0.85871 0.23005 0.1989 0.0
H870 H 0.91237 0.19119 0.21921 0.0
S871 S 0.89286 0.28193 0.29611 0.0
N872 N 0.86224 0.28999 0.26968 0.0
N873 N 0.92013 0.24813 0.29163 0.0
C874 C 0.90461 0.24185 0.26777 0.0
C875 C 0.87311 0.26454 0.25587 0.0
C876 C 0.9211 0.77378 0.72694 0.0
C877 C 0.87257 0.78141 0.71599 0.0
C878 C 0.94877 0.79485 0.74195 0.0
C879 C 0.92898 0.82436 0.74662 0.0
H880 H 0.93784 0.75131 0.72386 0.0
H881 H 0.98592 0.78791 0.75 0.0
S882 S 0.80602 0.8566 0.72054 0.0
N883 N 0.80716 0.82105 0.70988 0.0
N884 N 0.85948 0.86072 0.73786 0.0
C885 C 0.8807 0.83236 0.73568 0.0
C886 C 0.85243 0.81087 0.72044 0.0
C887 C 0.65867 0.73481 0.22705 0.0
C888 C 0.63522 0.76329 0.22229 0.0
C889 C 0.63097 0.7114 0.23932 0.0
C890 C 0.57884 0.71558 0.24761 0.0
H891 H 0.69877 0.73053 0.22116 0.0
H892 H 0.65076 0.68983 0.24239 0.0
S893 S 0.50052 0.78654 0.24098 0.0
N894 N 0.55729 0.79471 0.22742 0.0
N895 N 0.50548 0.7509 0.25083 0.0
C896 C 0.55501 0.74403 0.2431 0.0
C897 C 0.5831 0.7678 0.23037 0.0
C898 C 0.3823 0.75484 0.33394 0.0
C899 C 0.36776 0.7463 0.35846 0.0
C900 C 0.41106 0.73498 0.31834 0.0
C901 C 0.4262 0.70578 0.32664 0.0
H902 H 0.37245 0.77734 0.32694 0.0
H903 H 0.42257 0.74286 0.29987 0.0
S904 S 0.39373 0.67122 0.38829 0.0
N905 N 0.36768 0.70574 0.38958 0.0
N906 N 0.42184 0.66864 0.36043 0.0
C907 C 0.41086 0.6967 0.35088 0.0
C908 C 0.3816 0.71686 0.36672 0.0
C909 C 0.13027 0.79132 0.85461 0.0
C910 C 0.13825 0.763 0.84255 0.0
C911 C 0.1033 0.81509 0.84268 0.0
C912 C 0.08348 0.81155 0.81816 0.0
H913 H 0.14458 0.79504 0.87353 0.0
H914 H 0.09828 0.83651 0.85271 0.0
S915 S 0.09518 0.7423 0.77807 0.0
N916 N 0.12538 0.7331 0.80439 0.0
N917 N 0.074 0.77764 0.78217 0.0
C918 C 0.09143 0.78345 0.80583 0.0
C919 C 0.11884 0.75922 0.81797 0.0
loop_
_geom_bond_atom_site_label_1
_geom_bond_atom_site_label_2
_geom_bond_distance
_geom_bond_site_symmetry_2
_ccdc_geom_bond_type
C0 C1 1.264 . S
C0 C5 1.479 . S
C0 C10 1.465 . S
C1 C0 1.264 . S
C1 C3 1.339 . S
C1 H28 0.931 . S
C2 C3 1.395 . S
C2 C4 1.320 . S
C3 C1 1.339 . S
C3 C2 1.395 . S
C3 H29 0.929 . S
C4 C2 1.320 . S
C4 C5 1.405 . S
C4 H30 0.930 . S
C5 C0 1.479 . S
C5 C4 1.405 . S
C5 H31 0.931 . S
U6 O7 2.454 . S
U6 O8 2.458 . S
U6 C9 2.984 . S
U6 C10 2.847 . S
U6 C23 2.882 . S
U6 O24 2.441 . S
U6 O25 2.420 . S
U6 O26 2.455 . S
U6 O27 2.449 . S
O7 U6 2.454 . S
O7 C9 1.353 . S
O8 U6 2.458 . S
O8 C9 1.286 . S
C9 U6 2.984 . S
C9 O7 1.353 . S
C9 O8 1.286 . S
C9 C11 1.363 . S
C10 C0 1.465 . S
C10 U6 2.847 . S
C10 O24 1.249 . S
C10 O25 1.202 . S
C11 C9 1.363 . S
C11 C13 1.408 . S
C11 C16 1.342 . S
C12 C13 1.310 . S
C12 C15 1.461 . S
C12 H32 0.932 . S
C13 C11 1.408 . S
C13 C12 1.310 . S
C13 H33 0.930 . S
C14 C15 1.474 . S
C14 C16 1.285 . S
C14 H34 0.929 . S
C15 C12 1.461 . S
C15 C14 1.474 . S
C16 C11 1.342 . S
C16 C14 1.285 . S
C16 H35 0.930 . S
C17 C20 1.424 . S
C17 C22 1.245 . S
C17 C23 1.428 . S
C18 C21 1.260 . S
C18 C22 1.477 . S
C18 H36 0.932 . S
C19 C20 1.384 . S
C19 C21 1.479 . S
C19 H37 0.929 . S
C20 C17 1.424 . S
C20 C19 1.384 . S
C20 H38 0.928 . S
C21 C18 1.260 . S
C21 C19 1.479 . S
C22 C17 1.245 . S
C22 C18 1.477 . S
C22 H39 0.932 . S
C23 U6 2.882 . S
C23 C17 1.428 . S
C23 O26 1.301 . S
C23 O27 1.282 . S
O24 U6 2.441 . S
O24 C10 1.249 . S
O25 U6 2.420 . S
O25 C10 1.202 . S
O26 U6 2.455 . S
O26 C23 1.301 . S
O27 U6 2.449 . S
O27 C23 1.282 . S
H28 C1 0.931 . S
H29 C3 0.929 . S
H30 C4 0.930 . S
H31 C5 0.931 . S
H32 C12 0.932 . S
H33 C13 0.930 . S
H34 C14 0.929 . S
H35 C16 0.930 . S
H36 C18 0.932 . S
H37 C19 0.929 . S
H38 C20 0.928 . S
H39 C22 0.932 . S
C40 C41 1.264 . S
C40 C45 1.479 . S
C40 C50 1.465 . S
C41 C40 1.264 . S
C41 C43 1.339 1_556 S
C41 H68 0.931 . S
C42 C43 1.395 . S
C42 C44 1.320 . S
C43 C41 1.339 1_554 S
C43 C42 1.395 . S
C43 H69 0.929 . S
C44 C42 1.320 . S
C44 C45 1.405 1_554 S
C44 H70 0.930 . S
C45 C40 1.479 . S
C45 C44 1.405 1_556 S
C45 H71 0.931 . S
U46 O47 2.454 . S
U46 O48 2.458 . S
U46 C49 2.984 . S
U46 C50 2.847 . S
U46 C63 2.882 . S
U46 O64 2.441 . S
U46 O65 2.420 . S
U46 O66 2.455 . S
U46 O67 2.449 . S
O47 U46 2.454 . S
O47 C49 1.353 . S
O48 U46 2.458 . S
O48 C49 1.286 . S
C49 U46 2.984 . S
C49 O47 1.353 . S
C49 O48 1.286 . S
C49 C51 1.363 . S
C50 C40 1.465 . S
C50 U46 2.847 . S
C50 O64 1.249 . S
C50 O65 1.202 . S
C51 C49 1.363 . S
C51 C53 1.408 . S
C51 C56 1.342 . S
C52 C53 1.310 . S
C52 C55 1.461 . S
C52 H72 0.932 . S
C53 C51 1.408 . S
C53 C52 1.310 . S
C53 H73 0.930 . S
C54 C55 1.474 . S
C54 C56 1.285 . S
C54 H74 0.929 . S
C55 C52 1.461 . S
C55 C54 1.474 . S
C56 C51 1.342 . S
C56 C54 1.285 . S
C56 H75 0.930 . S
C57 C60 1.424 . S
C57 C62 1.245 . S
C57 C63 1.428 . S
C58 C61 1.260 1_545 S
C58 C62 1.477 . S
C58 H76 0.932 . S
C59 C60 1.397 . S
C59 C61 1.476 1_545 S
C59 H77 0.918 1_545 S
C60 C57 1.424 . S
C60 C59 1.397 . S
C60 H78 0.928 . S
C61 C58 1.260 1_565 S
C61 C59 1.476 1_565 S
C62 C57 1.245 . S
C62 C58 1.477 . S
C62 H79 0.932 . S
C63 U46 2.882 . S
C63 C57 1.428 . S
C63 O66 1.301 . S
C63 O67 1.282 . S
O64 U46 2.441 . S
O64 C50 1.249 . S
O65 U46 2.420 . S
O65 C50 1.202 . S
O66 U46 2.455 . S
O66 C63 1.301 . S
O67 U46 2.449 . S
O67 C63 1.282 . S
H68 C41 0.931 . S
H69 C43 0.929 . S
H70 C44 0.930 . S
H71 C45 0.931 . S
H72 C52 0.932 . S
H73 C53 0.930 . S
H74 C54 0.929 . S
H75 C56 0.930 . S
H76 C58 0.932 . S
H77 C59 0.918 1_565 S
H78 C60 0.928 . S
H79 C62 0.932 . S
C80 C81 1.264 . S
C80 C85 1.479 . S
C80 C90 1.465 . S
C81 C80 1.264 . S
C81 C83 1.339 1_545 S
C81 H108 0.931 . S
C82 C83 1.395 . S
C82 C84 1.320 1_565 S
C83 C81 1.339 1_565 S
C83 C82 1.395 . S
C83 H109 0.929 . S
C84 C82 1.320 1_545 S
C84 C85 1.405 . S
C84 H110 0.930 . S
C85 C80 1.479 . S
C85 C84 1.405 . S
C85 H111 0.931 . S
U86 O87 2.454 . S
U86 O88 2.458 . S
U86 C89 2.984 . S
U86 C90 2.847 . S
U86 C103 2.882 . S
U86 O104 2.441 . S
U86 O105 2.420 . S
U86 O106 2.455 . S
U86 O107 2.449 . S
O87 U86 2.454 . S
O87 C89 1.353 . S
O88 U86 2.458 . S
O88 C89 1.286 . S
C89 U86 2.984 . S
C89 O87 1.353 . S
C89 O88 1.286 . S
C89 C91 1.363 . S
C90 C80 1.465 . S
C90 U86 2.847 . S
C90 O104 1.249 . S
C90 O105 1.202 . S
C91 C89 1.363 . S
C91 C93 1.408 . S
C91 C96 1.342 . S
C92 C93 1.310 . S
C92 C95 1.461 . S
C92 H112 0.932 . S
C93 C91 1.408 . S
C93 C92 1.310 . S
C93 H113 0.930 . S
C94 C95 1.474 . S
C94 C96 1.285 . S
C94 H114 0.929 . S
C95 C92 1.461 . S
C95 C94 1.474 . S
C96 C91 1.342 . S
C96 C94 1.285 . S
C96 H115 0.930 . S
C97 C100 1.424 . S
C97 C102 1.245 . S
C97 C103 1.428 . S
C98 C101 1.260 . S
C98 C102 1.477 . S
C98 H116 0.932 . S
C99 C100 1.384 . S
C99 C101 1.479 . S
C99 H117 0.929 . S
C100 C97 1.424 . S
C100 C99 1.384 . S
C100 H118 0.928 . S
C101 C98 1.260 . S
C101 C99 1.479 . S
C102 C97 1.245 . S
C102 C98 1.477 . S
C102 H119 0.932 . S
C103 U86 2.882 . S
C103 C97 1.428 . S
C103 O106 1.301 . S
C103 O107 1.282 . S
O104 U86 2.441 . S
O104 C90 1.249 . S
O105 U86 2.420 . S
O105 C90 1.202 . S
O106 U86 2.455 . S
O106 C103 1.301 . S
O107 U86 2.449 . S
O107 C103 1.282 . S
H108 C81 0.931 . S
H109 C83 0.929 . S
H110 C84 0.930 . S
H111 C85 0.931 . S
H112 C92 0.932 . S
H113 C93 0.930 . S
H114 C94 0.929 . S
H115 C96 0.930 . S
H116 C98 0.932 . S
H117 C99 0.929 . S
H118 C100 0.928 . S
H119 C102 0.932 . S
C120 C121 1.264 . S
C120 C125 1.479 . S
C120 C130 1.465 . S
C121 C120 1.264 . S
C121 C123 1.339 1_554 S
C121 H148 0.931 . S
C122 C123 1.395 . S
C122 C124 1.320 . S
C123 C121 1.339 1_556 S
C123 C122 1.395 . S
C123 H149 0.929 . S
C124 C122 1.320 . S
C124 C125 1.405 1_556 S
C124 H150 0.930 . S
C125 C120 1.479 . S
C125 C124 1.405 1_554 S
C125 H151 0.931 . S
U126 O127 2.454 . S
U126 O128 2.458 . S
U126 C129 2.984 . S
U126 C130 2.847 . S
U126 C143 2.882 . S
U126 O144 2.441 . S
U126 O145 2.420 . S
U126 O146 2.455 . S
U126 O147 2.449 . S
O127 U126 2.454 . S
O127 C129 1.353 . S
O128 U126 2.458 . S
O128 C129 1.286 . S
C129 U126 2.984 . S
C129 O127 1.353 . S
C129 O128 1.286 . S
C129 C131 1.363 . S
C130 C120 1.465 . S
C130 U126 2.847 . S
C130 O144 1.249 . S
C130 O145 1.202 . S
C131 C129 1.363 . S
C131 C133 1.408 . S
C131 C136 1.342 . S
C132 C133 1.310 . S
C132 C135 1.461 . S
C132 H152 0.932 . S
C133 C131 1.408 . S
C133 C132 1.310 . S
C133 H153 0.930 . S
C134 C135 1.474 . S
C134 C136 1.285 . S
C134 H154 0.929 . S
C135 C132 1.461 . S
C135 C134 1.474 . S
C136 C131 1.342 . S
C136 C134 1.285 . S
C136 H155 0.930 . S
C137 C140 1.424 . S
C137 C142 1.245 . S
C137 C143 1.428 . S
C138 C141 1.260 . S
C138 C142 1.477 . S
C138 H156 0.932 . S
C139 C140 1.384 . S
C139 C141 1.479 . S
C139 H157 0.929 . S
C140 C137 1.424 . S
C140 C139 1.384 . S
C140 H158 0.928 . S
C141 C138 1.260 . S
C141 C139 1.479 . S
C142 C137 1.245 . S
C142 C138 1.477 . S
C142 H159 0.932 . S
C143 U126 2.882 . S
C143 C137 1.428 . S
C143 O146 1.301 . S
C143 O147 1.282 . S
O144 U126 2.441 . S
O144 C130 1.249 . S
O145 U126 2.420 . S
O145 C130 1.202 . S
O146 U126 2.455 . S
O146 C143 1.301 . S
O147 U126 2.449 . S
O147 C143 1.282 . S
H148 C121 0.931 . S
H149 C123 0.929 . S
H150 C124 0.930 . S
H151 C125 0.931 . S
H152 C132 0.932 . S
H153 C133 0.930 . S
H154 C134 0.929 . S
H155 C136 0.930 . S
H156 C138 0.932 . S
H157 C139 0.929 . S
H158 C140 0.928 . S
H159 C142 0.932 . S
C160 C161 1.264 . S
C160 C165 1.479 . S
C160 C170 1.465 . S
C161 C160 1.264 . S
C161 C163 1.339 . S
C161 H188 0.931 . S
C162 C163 1.395 . S
C162 C164 1.320 . S
C163 C161 1.339 . S
C163 C162 1.395 . S
C163 H189 0.929 . S
C164 C162 1.320 . S
C164 C165 1.405 . S
C164 H190 0.930 . S
C165 C160 1.479 . S
C165 C164 1.405 . S
C165 H191 0.931 . S
U166 O167 2.454 . S
U166 O168 2.458 . S
U166 C169 2.984 . S
U166 C170 2.847 . S
U166 C183 2.882 . S
U166 O184 2.441 . S
U166 O185 2.420 . S
U166 O186 2.455 . S
U166 O187 2.449 . S
O167 U166 2.454 . S
O167 C169 1.353 . S
O168 U166 2.458 . S
O168 C169 1.286 . S
C169 U166 2.984 . S
C169 O167 1.353 . S
C169 O168 1.286 . S
C169 C171 1.363 . S
C170 C160 1.465 . S
C170 U166 2.847 . S
C170 O184 1.249 . S
C170 O185 1.202 . S
C171 C169 1.363 . S
C171 C173 1.408 . S
C171 C176 1.342 . S
C172 C173 1.310 . S
C172 C175 1.461 . S
C172 H192 0.932 . S
C173 C171 1.408 . S
C173 C172 1.310 . S
C173 H193 0.930 . S
C174 C175 1.474 . S
C174 C176 1.285 . S
C174 H194 0.929 . S
C175 C172 1.461 . S
C175 C174 1.474 . S
C176 C171 1.342 . S
C176 C174 1.285 . S
C176 H195 0.930 . S
C177 C180 1.424 . S
C177 C182 1.245 . S
C177 C183 1.428 . S
C178 C181 1.260 . S
C178 C182 1.477 . S
C178 H196 0.932 . S
C179 C180 1.384 . S
C179 C181 1.479 . S
C179 H197 0.929 . S
C180 C177 1.424 . S
C180 C179 1.384 . S
C180 H198 0.928 . S
C181 C178 1.260 . S
C181 C179 1.479 . S
C182 C177 1.245 . S
C182 C178 1.477 . S
C182 H199 0.932 . S
C183 U166 2.882 . S
C183 C177 1.428 . S
C183 O186 1.301 . S
C183 O187 1.282 . S
O184 U166 2.441 . S
O184 C170 1.249 . S
O185 U166 2.420 . S
O185 C170 1.202 . S
O186 U166 2.455 . S
O186 C183 1.301 . S
O187 U166 2.449 . S
O187 C183 1.282 . S
H188 C161 0.931 . S
H189 C163 0.929 . S
H190 C164 0.930 . S
H191 C165 0.931 . S
H192 C172 0.932 . S
H193 C173 0.930 . S
H194 C174 0.929 . S
H195 C176 0.930 . S
H196 C178 0.932 . S
H197 C179 0.929 . S
H198 C180 0.928 . S
H199 C182 0.932 . S
C200 C201 1.264 . S
C200 C205 1.479 . S
C200 C210 1.465 . S
C201 C200 1.264 . S
C201 C203 1.339 1_554 S
C201 H228 0.931 . S
C202 C203 1.395 . S
C202 C204 1.320 . S
C203 C201 1.339 1_556 S
C203 C202 1.395 . S
C203 H229 0.929 . S
C204 C202 1.320 . S
C204 C205 1.405 1_556 S
C204 H230 0.930 . S
C205 C200 1.479 . S
C205 C204 1.405 1_554 S
C205 H231 0.931 . S
U206 O207 2.454 . S
U206 O208 2.458 . S
U206 C209 2.984 . S
U206 C210 2.847 . S
U206 C223 2.882 . S
U206 O224 2.441 . S
U206 O225 2.420 . S
U206 O226 2.455 . S
U206 O227 2.449 . S
O207 U206 2.454 . S
O207 C209 1.353 . S
O208 U206 2.458 . S
O208 C209 1.286 . S
C209 U206 2.984 . S
C209 O207 1.353 . S
C209 O208 1.286 . S
C209 C211 1.363 . S
C210 C200 1.465 . S
C210 U206 2.847 . S
C210 O224 1.249 . S
C210 O225 1.202 . S
C211 C209 1.363 . S
C211 C213 1.408 . S
C211 C216 1.342 . S
C212 C213 1.310 . S
C212 C215 1.461 . S
C212 H232 0.932 . S
C213 C211 1.408 . S
C213 C212 1.310 . S
C213 H233 0.930 . S
C214 C215 1.474 . S
C214 C216 1.285 . S
C214 H234 0.929 . S
C215 C212 1.461 . S
C215 C214 1.474 . S
C216 C211 1.342 . S
C216 C214 1.285 . S
C216 H235 0.930 . S
C217 C220 1.424 . S
C217 C222 1.245 . S
C217 C223 1.428 . S
C218 C221 1.260 1_565 S
C218 C222 1.477 . S
C218 H236 0.932 . S
C219 C220 1.384 1_545 S
C219 C221 1.479 . S
C219 H237 0.929 . S
C220 C217 1.424 . S
C220 C219 1.384 1_565 S
C220 H238 0.928 . S
C221 C218 1.260 1_545 S
C221 C219 1.479 . S
C222 C217 1.245 . S
C222 C218 1.477 . S
C222 H239 0.932 . S
C223 U206 2.882 . S
C223 C217 1.428 . S
C223 O226 1.301 . S
C223 O227 1.282 . S
O224 U206 2.441 . S
O224 C210 1.249 . S
O225 U206 2.420 . S
O225 C210 1.202 . S
O226 U206 2.455 . S
O226 C223 1.301 . S
O227 U206 2.449 . S
O227 C223 1.282 . S
H228 C201 0.931 . S
H229 C203 0.929 . S
H230 C204 0.930 . S
H231 C205 0.931 . S
H232 C212 0.932 . S
H233 C213 0.930 . S
H234 C214 0.929 . S
H235 C216 0.930 . S
H236 C218 0.932 . S
H237 C219 0.929 . S
H238 C220 0.928 . S
H239 C222 0.932 . S
C240 C241 1.264 . S
C240 C245 1.479 . S
C240 C250 1.465 . S
C241 C240 1.264 . S
C241 C243 1.339 . S
C241 H268 0.931 . S
C242 C243 1.395 1_545 S
C242 C244 1.320 1_545 S
C243 C241 1.339 . S
C243 C242 1.395 1_565 S
C243 H269 0.929 1_565 S
C244 C242 1.320 1_565 S
C244 C245 1.405 . S
C244 H270 0.930 . S
C245 C240 1.479 . S
C245 C244 1.405 . S
C245 H271 0.931 . S
U246 O247 2.454 . S
U246 O248 2.458 . S
U246 C249 2.984 . S
U246 C250 2.847 . S
U246 C263 2.882 . S
U246 O264 2.441 . S
U246 O265 2.420 . S
U246 O266 2.455 . S
U246 O267 2.449 . S
O247 U246 2.454 . S
O247 C249 1.353 . S
O248 U246 2.458 . S
O248 C249 1.286 . S
C249 U246 2.984 . S
C249 O247 1.353 . S
C249 O248 1.286 . S
C249 C251 1.363 . S
C250 C240 1.465 . S
C250 U246 2.847 . S
C250 O264 1.249 . S
C250 O265 1.202 . S
C251 C249 1.363 . S
C251 C253 1.408 . S
C251 C256 1.342 . S
C252 C253 1.310 . S
C252 C255 1.461 . S
C252 H272 0.932 . S
C253 C251 1.408 . S
C253 C252 1.310 . S
C253 H273 0.930 . S
C254 C255 1.474 . S
C254 C256 1.285 . S
C254 H274 0.929 . S
C255 C252 1.461 . S
C255 C254 1.474 . S
C256 C251 1.342 . S
C256 C254 1.285 . S
C256 H275 0.930 . S
C257 C260 1.424 . S
C257 C262 1.245 . S
C257 C263 1.428 . S
C258 C261 1.260 . S
C258 C262 1.477 . S
C258 H276 0.932 . S
C259 C260 1.384 . S
C259 C261 1.479 . S
C259 H277 0.929 . S
C260 C257 1.424 . S
C260 C259 1.384 . S
C260 H278 0.928 . S
C261 C258 1.260 . S
C261 C259 1.479 . S
C262 C257 1.245 . S
C262 C258 1.477 . S
C262 H279 0.932 . S
C263 U246 2.882 . S
C263 C257 1.428 . S
C263 O266 1.301 . S
C263 O267 1.282 . S
O264 U246 2.441 . S
O264 C250 1.249 . S
O265 U246 2.420 . S
O265 C250 1.202 . S
O266 U246 2.455 . S
O266 C263 1.301 . S
O267 U246 2.449 . S
O267 C263 1.282 . S
H268 C241 0.931 . S
H269 C243 0.929 1_545 S
H270 C244 0.930 . S
H271 C245 0.931 . S
H272 C252 0.932 . S
H273 C253 0.930 . S
H274 C254 0.929 . S
H275 C256 0.930 . S
H276 C258 0.932 . S
H277 C259 0.929 . S
H278 C260 0.928 . S
H279 C262 0.932 . S
C280 C281 1.264 . S
C280 C285 1.479 . S
C280 C290 1.465 . S
C281 C280 1.264 . S
C281 C283 1.339 1_556 S
C281 H308 0.931 . S
C282 C283 1.395 . S
C282 C284 1.320 . S
C283 C281 1.339 1_554 S
C283 C282 1.395 . S
C283 H309 0.929 . S
C284 C282 1.320 . S
C284 C285 1.405 1_554 S
C284 H310 0.930 . S
C285 C280 1.479 . S
C285 C284 1.405 1_556 S
C285 H311 0.931 . S
U286 O287 2.454 . S
U286 O288 2.458 . S
U286 C289 2.984 . S
U286 C290 2.847 . S
U286 C303 2.882 . S
U286 O304 2.441 . S
U286 O305 2.420 . S
U286 O306 2.455 . S
U286 O307 2.449 . S
O287 U286 2.454 . S
O287 C289 1.353 . S
O288 U286 2.458 . S
O288 C289 1.286 . S
C289 U286 2.984 . S
C289 O287 1.353 . S
C289 O288 1.286 . S
C289 C291 1.363 . S
C290 C280 1.465 . S
C290 U286 2.847 . S
C290 O304 1.249 . S
C290 O305 1.202 . S
C291 C289 1.363 . S
C291 C293 1.408 . S
C291 C296 1.342 . S
C292 C293 1.310 . S
C292 C295 1.461 . S
C292 H312 0.932 . S
C293 C291 1.408 . S
C293 C292 1.310 . S
C293 H313 0.930 . S
C294 C295 1.474 . S
C294 C296 1.285 . S
C294 H314 0.929 . S
C295 C292 1.461 . S
C295 C294 1.474 . S
C296 C291 1.342 . S
C296 C294 1.285 . S
C296 H315 0.930 . S
C297 C300 1.424 . S
C297 C302 1.245 . S
C297 C303 1.428 . S
C298 C301 1.260 . S
C298 C302 1.477 . S
C298 H316 0.932 . S
C299 C300 1.384 . S
C299 C301 1.479 . S
C299 H317 0.929 . S
C300 C297 1.424 . S
C300 C299 1.384 . S
C300 H318 0.928 . S
C301 C298 1.260 . S
C301 C299 1.479 . S
C302 C297 1.245 . S
C302 C298 1.477 . S
C302 H319 0.932 . S
C303 U286 2.882 . S
C303 C297 1.428 . S
C303 O306 1.301 . S
C303 O307 1.282 . S
O304 U286 2.441 . S
O304 C290 1.249 . S
O305 U286 2.420 . S
O305 C290 1.202 . S
O306 U286 2.455 . S
O306 C303 1.301 . S
O307 U286 2.449 . S
O307 C303 1.282 . S
H308 C281 0.931 . S
H309 C283 0.929 . S
H310 C284 0.930 . S
H311 C285 0.931 . S
H312 C292 0.932 . S
H313 C293 0.930 . S
H314 C294 0.929 . S
H315 C296 0.930 . S
H316 C298 0.932 . S
H317 C299 0.929 . S
H318 C300 0.928 . S
H319 C302 0.932 . S
Tb320 N349 2.617 . S
Tb320 N355 2.572 . S
Tb320 O364 2.465 . S
Tb320 O365 2.387 . S
Tb320 O367 2.428 . S
Tb320 O368 2.294 1_455 S
Tb320 O372 2.349 . S
Tb320 O375 2.393 . S
Tb320 C384 2.802 . S
C321 N322 1.379 . S
C321 C324 1.416 . S
C321 C328 1.424 . S
N322 C321 1.379 . S
N322 C325 1.334 . S
N322 Tb331 2.617 . S
C323 C325 1.390 . S
C323 C326 1.339 . S
C323 H343 0.930 . S
C324 C321 1.416 . S
C324 C326 1.416 . S
C324 C330 1.448 . S
C325 N322 1.334 . S
C325 C323 1.390 . S
C325 H336 0.930 . S
C326 C323 1.339 . S
C326 C324 1.416 . S
C326 H347 0.930 . S
C327 C328 1.413 . S
C327 C329 1.427 . S
C327 C333 1.416 . S
C328 C321 1.424 . S
C328 C327 1.413 . S
C328 N332 1.361 . S
C329 C327 1.427 . S
C329 C330 1.328 . S
C329 H344 0.929 . S
C330 C324 1.448 . S
C330 C329 1.328 . S
C330 H345 0.930 . S
Tb331 N322 2.617 . S
Tb331 N332 2.572 . S
Tb331 O366 2.349 1_655 S
Tb331 O369 2.393 . S
Tb331 O370 2.465 . S
Tb331 O371 2.387 . S
Tb331 O373 2.428 . S
Tb331 O374 2.308 1_655 S
Tb331 C395 2.802 . S
N332 C328 1.361 . S
N332 Tb331 2.572 . S
N332 C334 1.340 . S
C333 C327 1.416 . S
C333 C335 1.332 . S
C333 H341 0.931 . S
C334 N332 1.340 . S
C334 C335 1.407 . S
C334 H340 0.930 . S
C335 C333 1.332 . S
C335 C334 1.407 . S
C335 H337 0.929 . S
H336 C325 0.930 . S
H337 C335 0.929 . S
H338 C353 0.930 . S
H339 C360 0.929 . S
H340 C334 0.930 . S
H341 C333 0.931 . S
H342 C356 0.930 . S
H343 C323 0.930 . S
H344 C329 0.929 . S
H345 C330 0.930 . S
H346 C351 0.930 . S
H347 C326 0.930 . S
H348 C359 0.931 . S
N349 Tb320 2.617 . S
N349 C350 1.379 . S
N349 C353 1.334 . S
C350 N349 1.379 . S
C350 C352 1.416 . S
C350 C358 1.424 . S
C351 H346 0.930 . S
C351 C353 1.390 . S
C351 C354 1.339 . S
C352 C350 1.416 . S
C352 C354 1.416 . S
C352 C385 1.448 . S
C353 H338 0.930 . S
C353 N349 1.334 . S
C353 C351 1.390 . S
C354 C351 1.339 . S
C354 C352 1.416 . S
C354 H361 0.930 . S
N355 Tb320 2.572 . S
N355 C356 1.340 . S
N355 C358 1.361 . S
C356 H342 0.930 . S
C356 N355 1.340 . S
C356 C360 1.407 . S
C357 C358 1.413 . S
C357 C359 1.416 . S
C357 C386 1.427 . S
C358 C350 1.424 . S
C358 N355 1.361 . S
C358 C357 1.413 . S
C359 H348 0.931 . S
C359 C357 1.416 . S
C359 C360 1.332 . S
C360 H339 0.929 . S
C360 C356 1.407 . S
C360 C359 1.332 . S
H361 C354 0.930 . S
H362 C385 0.930 . S
H363 C386 0.929 . S
O364 Tb320 2.465 . S
O364 C384 1.264 . S
O365 Tb320 2.387 . S
O365 C376 1.264 . S
O366 Tb331 2.349 1_455 S
O366 C376 1.243 . S
O367 Tb320 2.428 . S
O367 C384 1.256 . S
O368 Tb320 2.294 1_655 S
O368 C383 1.283 . S
O369 Tb331 2.393 . S
O369 C383 1.248 . S
O370 Tb331 2.465 . S
O370 C395 1.264 . S
O371 Tb331 2.387 . S
O371 C387 1.264 . S
O372 Tb320 2.349 . S
O372 C387 1.243 1_455 S
O373 Tb331 2.428 . S
O373 C395 1.256 . S
O374 Tb331 2.308 1_455 S
O374 C394 1.266 . S
O375 Tb320 2.393 . S
O375 C394 1.248 . S
C376 O365 1.264 . S
C376 O366 1.243 . S
C377 C380 1.399 . S
C377 C382 1.383 . S
C377 C384 1.496 . S
C378 C379 1.399 . S
C378 C382 1.389 . S
C379 C378 1.399 . S
C379 C381 1.380 . S
C379 H396 0.929 . S
C380 C377 1.399 . S
C380 C381 1.392 . S
C380 H397 0.929 . S
C381 C379 1.380 . S
C381 C380 1.392 . S
C381 H398 0.929 . S
C382 C377 1.383 . S
C382 C378 1.389 . S
C382 H399 0.931 . S
C383 O368 1.283 . S
C383 O369 1.248 . S
C384 Tb320 2.802 . S
C384 O364 1.264 . S
C384 O367 1.256 . S
C384 C377 1.496 . S
C385 C352 1.448 . S
C385 H362 0.930 . S
C385 C386 1.328 . S
C386 C357 1.427 . S
C386 H363 0.929 . S
C386 C385 1.328 . S
C387 O371 1.264 . S
C387 O372 1.243 1_655 S
C388 C391 1.399 . S
C388 C392 1.383 . S
C388 C395 1.496 . S
C389 C390 1.399 . S
C389 C392 1.389 . S
C390 C389 1.399 . S
C390 C393 1.380 . S
C390 H400 0.929 . S
C391 C388 1.399 . S
C391 C393 1.392 . S
C391 H401 0.929 . S
C392 C388 1.383 . S
C392 C389 1.389 . S
C392 H402 0.931 . S
C393 C390 1.380 . S
C393 C391 1.392 . S
C393 H403 0.929 . S
C394 O374 1.266 . S
C394 O375 1.248 . S
C395 Tb331 2.802 . S
C395 O370 1.264 . S
C395 O373 1.256 . S
C395 C388 1.496 . S
H396 C379 0.929 . S
H397 C380 0.929 . S
H398 C381 0.929 . S
H399 C382 0.931 . S
H400 C390 0.929 . S
H401 C391 0.929 . S
H402 C392 0.931 . S
H403 C393 0.929 . S
Tb404 N433 2.617 . S
Tb404 N439 2.572 . S
Tb404 O448 2.465 . S
Tb404 O449 2.387 . S
Tb404 O451 2.428 . S
Tb404 O452 2.308 . S
Tb404 O456 2.349 . S
Tb404 O459 2.393 . S
Tb404 C468 2.802 . S
C405 N406 1.379 . S
C405 C408 1.416 . S
C405 C412 1.424 . S
N406 C405 1.379 . S
N406 C409 1.334 . S
N406 Tb415 2.617 . S
C407 C409 1.390 . S
C407 C410 1.339 . S
C407 H427 0.930 . S
C408 C405 1.416 . S
C408 C410 1.416 . S
C408 C414 1.448 . S
C409 N406 1.334 . S
C409 C407 1.390 . S
C409 H420 0.930 . S
C410 C407 1.339 . S
C410 C408 1.416 . S
C410 H431 0.930 . S
C411 C412 1.413 . S
C411 C413 1.427 . S
C411 C417 1.416 . S
C412 C405 1.424 . S
C412 C411 1.413 . S
C412 N416 1.361 . S
C413 C411 1.427 . S
C413 C414 1.328 . S
C413 H428 0.929 . S
C414 C408 1.448 . S
C414 C413 1.328 . S
C414 H429 0.930 . S
Tb415 N406 2.617 . S
Tb415 N416 2.572 . S
Tb415 O450 2.349 . S
Tb415 O453 2.393 . S
Tb415 O454 2.465 . S
Tb415 O455 2.387 . S
Tb415 O457 2.428 . S
Tb415 O458 2.308 . S
Tb415 C479 2.802 . S
N416 C412 1.361 . S
N416 Tb415 2.572 . S
N416 C418 1.340 . S
C417 C411 1.416 . S
C417 C419 1.332 . S
C417 H425 0.931 . S
C418 N416 1.340 . S
C418 C419 1.407 . S
C418 H424 0.930 . S
C419 C417 1.332 . S
C419 C418 1.407 . S
C419 H421 0.929 . S
H420 C409 0.930 . S
H421 C419 0.929 . S
H422 C437 0.930 . S
H423 C444 0.929 . S
H424 C418 0.930 . S
H425 C417 0.931 . S
H426 C440 0.930 . S
H427 C407 0.930 . S
H428 C413 0.929 . S
H429 C414 0.930 . S
H430 C435 0.930 . S
H431 C410 0.930 . S
H432 C443 0.931 . S
N433 Tb404 2.617 . S
N433 C434 1.379 . S
N433 C437 1.334 . S
C434 N433 1.379 . S
C434 C436 1.416 . S
C434 C442 1.424 . S
C435 H430 0.930 . S
C435 C437 1.390 . S
C435 C438 1.339 . S
C436 C434 1.416 . S
C436 C438 1.416 . S
C436 C469 1.448 . S
C437 H422 0.930 . S
C437 N433 1.334 . S
C437 C435 1.390 . S
C438 C435 1.339 . S
C438 C436 1.416 . S
C438 H445 0.930 . S
N439 Tb404 2.572 . S
N439 C440 1.340 . S
N439 C442 1.361 . S
C440 H426 0.930 . S
C440 N439 1.340 . S
C440 C444 1.407 . S
C441 C442 1.413 . S
C441 C443 1.416 . S
C441 C470 1.427 . S
C442 C434 1.424 . S
C442 N439 1.361 . S
C442 C441 1.413 . S
C443 H432 0.931 . S
C443 C441 1.416 . S
C443 C444 1.332 . S
C444 H423 0.929 . S
C444 C440 1.407 . S
C444 C443 1.332 . S
H445 C438 0.930 . S
H446 C469 0.930 . S
H447 C470 0.929 . S
O448 Tb404 2.465 . S
O448 C468 1.264 . S
O449 Tb404 2.387 . S
O449 C460 1.264 . S
O450 Tb415 2.349 . S
O450 C460 1.243 . S
O451 Tb404 2.428 . S
O451 C468 1.256 . S
O452 Tb404 2.308 . S
O452 C467 1.266 . S
O453 Tb415 2.393 . S
O453 C467 1.248 . S
O454 Tb415 2.465 . S
O454 C479 1.264 . S
O455 Tb415 2.387 . S
O455 C471 1.264 . S
O456 Tb404 2.349 . S
O456 C471 1.243 . S
O457 Tb415 2.428 . S
O457 C479 1.256 . S
O458 Tb415 2.308 . S
O458 C478 1.266 . S
O459 Tb404 2.393 . S
O459 C478 1.248 . S
C460 O449 1.264 . S
C460 O450 1.243 . S
C461 C464 1.399 . S
C461 C466 1.383 . S
C461 C468 1.496 . S
C462 C463 1.399 . S
C462 C466 1.389 . S
C463 C462 1.399 . S
C463 C465 1.380 . S
C463 H480 0.929 . S
C464 C461 1.399 . S
C464 C465 1.392 . S
C464 H481 0.929 . S
C465 C463 1.380 . S
C465 C464 1.392 . S
C465 H482 0.929 . S
C466 C461 1.383 . S
C466 C462 1.389 . S
C466 H483 0.931 . S
C467 O452 1.266 . S
C467 O453 1.248 . S
C468 Tb404 2.802 . S
C468 O448 1.264 . S
C468 O451 1.256 . S
C468 C461 1.496 . S
C469 C436 1.448 . S
C469 H446 0.930 . S
C469 C470 1.328 . S
C470 C441 1.427 . S
C470 H447 0.929 . S
C470 C469 1.328 . S
C471 O455 1.264 . S
C471 O456 1.243 . S
C472 C475 1.399 . S
C472 C476 1.383 . S
C472 C479 1.496 . S
C473 C474 1.399 . S
C473 C476 1.389 . S
C474 C473 1.399 . S
C474 C477 1.380 . S
C474 H484 0.929 . S
C475 C472 1.399 . S
C475 C477 1.392 . S
C475 H485 0.929 . S
C476 C472 1.383 . S
C476 C473 1.389 . S
C476 H486 0.931 . S
C477 C474 1.380 . S
C477 C475 1.392 . S
C477 H487 0.929 . S
C478 O458 1.266 . S
C478 O459 1.248 . S
C479 Tb415 2.802 . S
C479 O454 1.264 . S
C479 O457 1.256 . S
C479 C472 1.496 . S
H480 C463 0.929 . S
H481 C464 0.929 . S
H482 C465 0.929 . S
H483 C466 0.931 . S
H484 C474 0.929 . S
H485 C475 0.929 . S
H486 C476 0.931 . S
H487 C477 0.929 . S
Tb488 N517 2.617 . S
Tb488 N523 2.572 . S
Tb488 O532 2.465 . S
Tb488 O533 2.387 . S
Tb488 O535 2.428 . S
Tb488 O536 2.308 . S
Tb488 O540 2.349 . S
Tb488 O543 2.393 . S
Tb488 C552 2.802 . S
C489 N490 1.379 . S
C489 C492 1.416 . S
C489 C496 1.424 . S
N490 C489 1.379 . S
N490 C493 1.334 . S
N490 Tb499 2.617 . S
C491 C493 1.390 . S
C491 C494 1.339 . S
C491 H511 0.930 . S
C492 C489 1.416 . S
C492 C494 1.416 . S
C492 C498 1.448 . S
C493 N490 1.334 . S
C493 C491 1.390 . S
C493 H504 0.930 . S
C494 C491 1.339 . S
C494 C492 1.416 . S
C494 H515 0.930 . S
C495 C496 1.413 . S
C495 C497 1.427 . S
C495 C501 1.416 . S
C496 C489 1.424 . S
C496 C495 1.413 . S
C496 N500 1.361 . S
C497 C495 1.427 . S
C497 C498 1.328 . S
C497 H512 0.929 . S
C498 C492 1.448 . S
C498 C497 1.328 . S
C498 H513 0.930 . S
Tb499 N490 2.617 . S
Tb499 N500 2.572 . S
Tb499 O534 2.349 1_655 S
Tb499 O537 2.393 . S
Tb499 O538 2.465 . S
Tb499 O539 2.387 . S
Tb499 O541 2.428 . S
Tb499 O542 2.308 1_655 S
Tb499 C563 2.802 . S
N500 C496 1.361 . S
N500 Tb499 2.572 . S
N500 C502 1.340 . S
C501 C495 1.416 . S
C501 C503 1.332 . S
C501 H509 0.931 . S
C502 N500 1.340 . S
C502 C503 1.407 . S
C502 H508 0.930 . S
C503 C501 1.332 . S
C503 C502 1.407 . S
C503 H505 0.929 . S
H504 C493 0.930 . S
H505 C503 0.929 . S
H506 C521 0.930 . S
H507 C528 0.929 . S
H508 C502 0.930 . S
H509 C501 0.931 . S
H510 C524 0.930 . S
H511 C491 0.930 . S
H512 C497 0.929 . S
H513 C498 0.930 . S
H514 C519 0.930 . S
H515 C494 0.930 . S
H516 C527 0.931 . S
N517 Tb488 2.617 . S
N517 C518 1.379 . S
N517 C521 1.334 . S
C518 N517 1.379 . S
C518 C520 1.416 . S
C518 C526 1.424 . S
C519 H514 0.930 . S
C519 C521 1.390 . S
C519 C522 1.339 . S
C520 C518 1.416 . S
C520 C522 1.416 . S
C520 C553 1.448 . S
C521 H506 0.930 . S
C521 N517 1.334 . S
C521 C519 1.390 . S
C522 C519 1.339 . S
C522 C520 1.416 . S
C522 H529 0.930 . S
N523 Tb488 2.572 . S
N523 C524 1.340 . S
N523 C526 1.361 . S
C524 H510 0.930 . S
C524 N523 1.340 . S
C524 C528 1.407 . S
C525 C526 1.413 . S
C525 C527 1.416 . S
C525 C554 1.427 . S
C526 C518 1.424 . S
C526 N523 1.361 . S
C526 C525 1.413 . S
C527 H516 0.931 . S
C527 C525 1.416 . S
C527 C528 1.332 . S
C528 H507 0.929 . S
C528 C524 1.407 . S
C528 C527 1.332 . S
H529 C522 0.930 . S
H530 C553 0.930 . S
H531 C554 0.929 . S
O532 Tb488 2.465 . S
O532 C552 1.264 . S
O533 Tb488 2.387 . S
O533 C544 1.264 . S
O534 Tb499 2.349 1_455 S
O534 C544 1.243 . S
O535 Tb488 2.428 . S
O535 C552 1.256 . S
O536 Tb488 2.308 . S
O536 C551 1.266 1_455 S
O537 Tb499 2.393 . S
O537 C551 1.248 . S
O538 Tb499 2.465 . S
O538 C563 1.264 . S
O539 Tb499 2.387 . S
O539 C555 1.264 . S
O540 Tb488 2.349 . S
O540 C555 1.243 1_455 S
O541 Tb499 2.428 . S
O541 C563 1.256 . S
O542 Tb499 2.308 1_455 S
O542 C562 1.266 . S
O543 Tb488 2.393 . S
O543 C562 1.248 . S
C544 O533 1.264 . S
C544 O534 1.243 . S
C545 C548 1.399 . S
C545 C550 1.383 . S
C545 C552 1.496 . S
C546 C547 1.399 . S
C546 C550 1.389 . S
C547 C546 1.399 . S
C547 C549 1.380 . S
C547 H564 0.929 . S
C548 C545 1.399 . S
C548 C549 1.392 . S
C548 H565 0.929 . S
C549 C547 1.380 . S
C549 C548 1.392 . S
C549 H566 0.929 . S
C550 C545 1.383 . S
C550 C546 1.389 . S
C550 H567 0.931 . S
C551 O536 1.266 1_655 S
C551 O537 1.248 . S
C552 Tb488 2.802 . S
C552 O532 1.264 . S
C552 O535 1.256 . S
C552 C545 1.496 . S
C553 C520 1.448 . S
C553 H530 0.930 . S
C553 C554 1.328 . S
C554 C525 1.427 . S
C554 H531 0.929 . S
C554 C553 1.328 . S
C555 O539 1.264 . S
C555 O540 1.243 1_655 S
C556 C559 1.399 . S
C556 C560 1.383 . S
C556 C563 1.496 . S
C557 C558 1.399 . S
C557 C560 1.389 . S
C558 C557 1.399 . S
C558 C561 1.380 . S
C558 H568 0.929 . S
C559 C556 1.399 . S
C559 C561 1.392 . S
C559 H569 0.929 . S
C560 C556 1.383 . S
C560 C557 1.389 . S
C560 H570 0.931 . S
C561 C558 1.380 . S
C561 C559 1.392 . S
C561 H571 0.929 . S
C562 O542 1.266 . S
C562 O543 1.248 . S
C563 Tb499 2.802 . S
C563 O538 1.264 . S
C563 O541 1.256 . S
C563 C556 1.496 . S
H564 C547 0.929 . S
H565 C548 0.929 . S
H566 C549 0.929 . S
H567 C550 0.931 . S
H568 C558 0.929 . S
H569 C559 0.929 . S
H570 C560 0.931 . S
H571 C561 0.929 . S
Tb572 N601 2.617 . S
Tb572 N607 2.572 . S
Tb572 O616 2.465 . S
Tb572 O617 2.387 . S
Tb572 O619 2.428 . S
Tb572 O620 2.308 . S
Tb572 O624 2.349 . S
Tb572 O627 2.393 . S
Tb572 C636 2.802 . S
C573 N574 1.379 . S
C573 C576 1.416 . S
C573 C580 1.424 . S
N574 C573 1.379 . S
N574 C577 1.334 . S
N574 Tb583 2.617 . S
C575 C577 1.390 . S
C575 C578 1.339 . S
C575 H595 0.930 . S
C576 C573 1.416 . S
C576 C578 1.416 . S
C576 C582 1.448 . S
C577 N574 1.334 . S
C577 C575 1.390 . S
C577 H588 0.930 . S
C578 C575 1.339 . S
C578 C576 1.416 . S
C578 H599 0.930 . S
C579 C580 1.413 . S
C579 C581 1.427 . S
C579 C585 1.416 . S
C580 C573 1.424 . S
C580 C579 1.413 . S
C580 N584 1.361 . S
C581 C579 1.427 . S
C581 C582 1.328 . S
C581 H596 0.929 . S
C582 C576 1.448 . S
C582 C581 1.328 . S
C582 H597 0.930 . S
Tb583 N574 2.617 . S
Tb583 N584 2.572 . S
Tb583 O618 2.349 . S
Tb583 O621 2.393 . S
Tb583 O622 2.465 . S
Tb583 O623 2.387 . S
Tb583 O625 2.428 . S
Tb583 O626 2.308 . S
Tb583 C647 2.802 . S
N584 C580 1.361 . S
N584 Tb583 2.572 . S
N584 C586 1.340 . S
C585 C579 1.416 . S
C585 C587 1.332 . S
C585 H593 0.931 . S
C586 N584 1.340 . S
C586 C587 1.407 . S
C586 H592 0.930 . S
C587 C585 1.332 . S
C587 C586 1.407 . S
C587 H589 0.929 . S
H588 C577 0.930 . S
H589 C587 0.929 . S
H590 C605 0.930 . S
H591 C612 0.929 . S
H592 C586 0.930 . S
H593 C585 0.931 . S
H594 C608 0.930 . S
H595 C575 0.930 . S
H596 C581 0.929 . S
H597 C582 0.930 . S
H598 C603 0.930 . S
H599 C578 0.930 . S
H600 C611 0.931 . S
N601 Tb572 2.617 . S
N601 C602 1.379 . S
N601 C605 1.334 . S
C602 N601 1.379 . S
C602 C604 1.416 . S
C602 C610 1.424 . S
C603 H598 0.930 . S
C603 C605 1.390 . S
C603 C606 1.339 . S
C604 C602 1.416 . S
C604 C606 1.416 . S
C604 C637 1.448 . S
C605 H590 0.930 . S
C605 N601 1.334 . S
C605 C603 1.390 . S
C606 C603 1.339 . S
C606 C604 1.416 . S
C606 H613 0.930 . S
N607 Tb572 2.572 . S
N607 C608 1.340 . S
N607 C610 1.361 . S
C608 H594 0.930 . S
C608 N607 1.340 . S
C608 C612 1.407 . S
C609 C610 1.413 . S
C609 C611 1.416 . S
C609 C638 1.427 . S
C610 C602 1.424 . S
C610 N607 1.361 . S
C610 C609 1.413 . S
C611 H600 0.931 . S
C611 C609 1.416 . S
C611 C612 1.332 . S
C612 H591 0.929 . S
C612 C608 1.407 . S
C612 C611 1.332 . S
H613 C606 0.930 . S
H614 C637 0.930 . S
H615 C638 0.929 . S
O616 Tb572 2.465 . S
O616 C636 1.264 . S
O617 Tb572 2.387 . S
O617 C628 1.264 . S
O618 Tb583 2.349 . S
O618 C628 1.243 . S
O619 Tb572 2.428 . S
O619 C636 1.256 . S
O620 Tb572 2.308 . S
O620 C635 1.266 . S
O621 Tb583 2.393 . S
O621 C635 1.248 . S
O622 Tb583 2.465 . S
O622 C647 1.264 . S
O623 Tb583 2.387 . S
O623 C639 1.264 . S
O624 Tb572 2.349 . S
O624 C639 1.243 . S
O625 Tb583 2.428 . S
O625 C647 1.256 . S
O626 Tb583 2.308 . S
O626 C646 1.266 . S
O627 Tb572 2.393 . S
O627 C646 1.248 . S
C628 O617 1.264 . S
C628 O618 1.243 . S
C629 C632 1.399 . S
C629 C634 1.383 . S
C629 C636 1.496 . S
C630 C631 1.399 . S
C630 C634 1.389 . S
C631 C630 1.399 . S
C631 C633 1.380 . S
C631 H648 0.929 . S
C632 C629 1.399 . S
C632 C633 1.392 . S
C632 H649 0.929 . S
C633 C631 1.380 . S
C633 C632 1.392 . S
C633 H650 0.929 . S
C634 C629 1.383 . S
C634 C630 1.389 . S
C634 H651 0.931 . S
C635 O620 1.266 . S
C635 O621 1.248 . S
C636 Tb572 2.802 . S
C636 O616 1.264 . S
C636 O619 1.256 . S
C636 C629 1.496 . S
C637 C604 1.448 . S
C637 H614 0.930 . S
C637 C638 1.328 . S
C638 C609 1.427 . S
C638 H615 0.929 . S
C638 C637 1.328 . S
C639 O623 1.264 . S
C639 O624 1.243 . S
C640 C643 1.399 . S
C640 C644 1.383 . S
C640 C647 1.496 . S
C641 C642 1.399 . S
C641 C644 1.389 . S
C642 C641 1.399 . S
C642 C645 1.380 . S
C642 H652 0.929 . S
C643 C640 1.399 . S
C643 C645 1.392 . S
C643 H653 0.929 . S
C644 C640 1.383 . S
C644 C641 1.389 . S
C644 H654 0.931 . S
C645 C642 1.380 . S
C645 C643 1.392 . S
C645 H655 0.929 . S
C646 O626 1.266 . S
C646 O627 1.248 . S
C647 Tb583 2.802 . S
C647 O622 1.264 . S
C647 O625 1.256 . S
C647 C640 1.496 . S
H648 C631 0.929 . S
H649 C632 0.929 . S
H650 C633 0.929 . S
H651 C634 0.931 . S
H652 C642 0.929 . S
H653 C643 0.929 . S
H654 C644 0.931 . S
H655 C645 0.929 . S
C656 C657 1.369 . S
C656 C658 1.419 . S
C656 H660 0.930 . S
C657 C656 1.369 . S
C657 C666 1.429 . S
C658 C656 1.419 . S
C658 C659 1.363 . S
C658 H661 0.929 . S
C659 C658 1.363 . S
C659 C665 1.428 . S
H660 C656 0.930 . S
H661 C658 0.929 . S
S662 N663 1.613 . S
S662 N664 1.610 . S
N663 S662 1.613 . S
N663 C666 1.350 . S
N664 S662 1.610 . S
N664 C665 1.351 . S
C665 C659 1.428 . S
C665 N664 1.351 . S
C665 C666 1.434 . S
C666 C657 1.429 . S
C666 N663 1.350 . S
C666 C665 1.434 . S
C667 C668 1.369 . S
C667 C669 1.419 . S
C667 H671 0.930 . S
C668 C667 1.369 . S
C668 C677 1.429 . S
C669 C667 1.419 . S
C669 C670 1.363 . S
C669 H672 0.929 . S
C670 C669 1.363 . S
C670 C676 1.428 . S
H671 C667 0.930 . S
H672 C669 0.929 . S
S673 N674 1.613 . S
S673 N675 1.610 . S
N674 S673 1.613 . S
N674 C677 1.350 . S
N675 S673 1.610 . S
N675 C676 1.351 . S
C676 C670 1.428 . S
C676 N675 1.351 . S
C676 C677 1.434 . S
C677 C668 1.429 . S
C677 N674 1.350 . S
C677 C676 1.434 . S
C678 C679 1.369 . S
C678 C680 1.419 . S
C678 H682 0.930 . S
C679 C678 1.369 . S
C679 C688 1.429 . S
C680 C678 1.419 . S
C680 C681 1.363 . S
C680 H683 0.929 . S
C681 C680 1.363 . S
C681 C687 1.428 . S
H682 C678 0.930 . S
H683 C680 0.929 . S
S684 N685 1.613 . S
S684 N686 1.610 . S
N685 S684 1.613 . S
N685 C688 1.350 . S
N686 S684 1.610 . S
N686 C687 1.351 . S
C687 C681 1.428 . S
C687 N686 1.351 . S
C687 C688 1.434 . S
C688 C679 1.429 . S
C688 N685 1.350 . S
C688 C687 1.434 . S
C689 C690 1.369 . S
C689 C691 1.419 . S
C689 H693 0.930 . S
C690 C689 1.369 . S
C690 C699 1.429 . S
C691 C689 1.419 . S
C691 C692 1.363 . S
C691 H694 0.929 . S
C692 C691 1.363 . S
C692 C698 1.428 . S
H693 C689 0.930 . S
H694 C691 0.929 . S
S695 N696 1.613 1_455 S
S695 N697 1.610 1_455 S
N696 S695 1.613 1_655 S
N696 C699 1.350 . S
N697 S695 1.610 1_655 S
N697 C698 1.351 . S
C698 C692 1.428 . S
C698 N697 1.351 . S
C698 C699 1.434 . S
C699 C690 1.429 . S
C699 N696 1.350 . S
C699 C698 1.434 . S
C700 C701 1.369 . S
C700 C702 1.419 . S
C700 H704 0.930 . S
C701 C700 1.369 . S
C701 C710 1.429 . S
C702 C700 1.419 . S
C702 C703 1.363 . S
C702 H705 0.929 . S
C703 C702 1.363 . S
C703 C709 1.428 . S
H704 C700 0.930 . S
H705 C702 0.929 . S
S706 N707 1.613 . S
S706 N708 1.610 . S
N707 S706 1.613 . S
N707 C710 1.350 . S
N708 S706 1.610 . S
N708 C709 1.351 . S
C709 C703 1.428 . S
C709 N708 1.351 . S
C709 C710 1.434 . S
C710 C701 1.429 . S
C710 N707 1.350 . S
C710 C709 1.434 . S
C711 C712 1.369 . S
C711 C713 1.419 . S
C711 H715 0.930 . S
C712 C711 1.369 . S
C712 C721 1.429 . S
C713 C711 1.419 . S
C713 C714 1.363 . S
C713 H716 0.929 . S
C714 C713 1.363 . S
C714 C720 1.428 . S
H715 C711 0.930 . S
H716 C713 0.929 . S
S717 N718 1.613 . S
S717 N719 1.610 . S
N718 S717 1.613 . S
N718 C721 1.350 . S
N719 S717 1.610 . S
N719 C720 1.351 . S
C720 C714 1.428 . S
C720 N719 1.351 . S
C720 C721 1.434 . S
C721 C712 1.429 . S
C721 N718 1.350 . S
C721 C720 1.434 . S
C722 C723 1.369 . S
C722 C724 1.419 . S
C722 H726 0.930 . S
C723 C722 1.369 . S
C723 C732 1.429 . S
C724 C722 1.419 . S
C724 C725 1.363 . S
C724 H727 0.929 . S
C725 C724 1.363 . S
C725 C731 1.428 . S
H726 C722 0.930 . S
H727 C724 0.929 . S
S728 N729 1.613 . S
S728 N730 1.610 . S
N729 S728 1.613 . S
N729 C732 1.350 . S
N730 S728 1.610 . S
N730 C731 1.351 . S
C731 C725 1.428 . S
C731 N730 1.351 . S
C731 C732 1.434 . S
C732 C723 1.429 . S
C732 N729 1.350 . S
C732 C731 1.434 . S
C733 C734 1.369 . S
C733 C735 1.419 . S
C733 H737 0.930 . S
C734 C733 1.369 . S
C734 C743 1.429 . S
C735 C733 1.419 . S
C735 C736 1.363 . S
C735 H738 0.929 . S
C736 C735 1.363 . S
C736 C742 1.428 . S
H737 C733 0.930 . S
H738 C735 0.929 . S
S739 N740 1.613 . S
S739 N741 1.610 . S
N740 S739 1.613 . S
N740 C743 1.350 . S
N741 S739 1.610 . S
N741 C742 1.351 . S
C742 C736 1.428 . S
C742 N741 1.351 . S
C742 C743 1.434 . S
C743 C734 1.429 . S
C743 N740 1.350 . S
C743 C742 1.434 . S
C744 C745 1.369 . S
C744 C746 1.419 . S
C744 H748 0.930 . S
C745 C744 1.369 . S
C745 C754 1.429 . S
C746 C744 1.419 . S
C746 C747 1.363 . S
C746 H749 0.929 . S
C747 C746 1.363 . S
C747 C753 1.428 . S
H748 C744 0.930 . S
H749 C746 0.929 . S
S750 N751 1.613 . S
S750 N752 1.610 . S
N751 S750 1.613 . S
N751 C754 1.350 . S
N752 S750 1.610 . S
N752 C753 1.351 . S
C753 C747 1.428 . S
C753 N752 1.351 . S
C753 C754 1.434 . S
C754 C745 1.429 . S
C754 N751 1.350 . S
C754 C753 1.434 . S
C755 C756 1.369 . S
C755 C757 1.419 . S
C755 H759 0.930 . S
C756 C755 1.369 . S
C756 C765 1.429 . S
C757 C755 1.419 . S
C757 C758 1.363 . S
C757 H760 0.929 . S
C758 C757 1.363 . S
C758 C764 1.428 . S
H759 C755 0.930 . S
H760 C757 0.929 . S
S761 N762 1.613 . S
S761 N763 1.610 . S
N762 S761 1.613 . S
N762 C765 1.350 . S
N763 S761 1.610 . S
N763 C764 1.351 . S
C764 C758 1.428 . S
C764 N763 1.351 . S
C764 C765 1.434 . S
C765 C756 1.429 . S
C765 N762 1.350 . S
C765 C764 1.434 . S
C766 C767 1.369 . S
C766 C768 1.419 . S
C766 H770 0.930 . S
C767 C766 1.369 . S
C767 C776 1.429 . S
C768 C766 1.419 . S
C768 C769 1.363 . S
C768 H771 0.929 . S
C769 C768 1.363 . S
C769 C775 1.428 . S
H770 C766 0.930 . S
H771 C768 0.929 . S
S772 N773 1.613 . S
S772 N774 1.610 . S
N773 S772 1.613 . S
N773 C776 1.350 . S
N774 S772 1.610 . S
N774 C775 1.351 . S
C775 C769 1.428 . S
C775 N774 1.351 . S
C775 C776 1.434 . S
C776 C767 1.429 . S
C776 N773 1.350 . S
C776 C775 1.434 . S
C777 C778 1.369 . S
C777 C779 1.419 . S
C777 H781 0.930 . S
C778 C777 1.369 . S
C778 C787 1.429 . S
C779 C777 1.419 . S
C779 C780 1.363 . S
C779 H782 0.929 . S
C780 C779 1.363 . S
C780 C786 1.428 . S
H781 C777 0.930 . S
H782 C779 0.929 . S
S783 N784 1.613 . S
S783 N785 1.610 . S
N784 S783 1.613 . S
N784 C787 1.350 . S
N785 S783 1.610 . S
N785 C786 1.351 . S
C786 C780 1.428 . S
C786 N785 1.351 . S
C786 C787 1.434 . S
C787 C778 1.429 . S
C787 N784 1.350 . S
C787 C786 1.434 . S
C788 C789 1.369 . S
C788 C790 1.419 . S
C788 H792 0.930 . S
C789 C788 1.369 . S
C789 C798 1.429 . S
C790 C788 1.419 . S
C790 C791 1.363 . S
C790 H793 0.929 . S
C791 C790 1.363 . S
C791 C797 1.428 . S
H792 C788 0.930 . S
H793 C790 0.929 . S
S794 N795 1.613 . S
S794 N796 1.610 . S
N795 S794 1.613 . S
N795 C798 1.350 . S
N796 S794 1.610 . S
N796 C797 1.351 . S
C797 C791 1.428 . S
C797 N796 1.351 . S
C797 C798 1.434 . S
C798 C789 1.429 . S
C798 N795 1.350 . S
C798 C797 1.434 . S
C799 C800 1.369 . S
C799 C801 1.419 . S
C799 H803 0.930 . S
C800 C799 1.369 . S
C800 C809 1.429 . S
C801 C799 1.419 . S
C801 C802 1.363 . S
C801 H804 0.929 . S
C802 C801 1.363 . S
C802 C808 1.428 . S
H803 C799 0.930 . S
H804 C801 0.929 . S
S805 N806 1.613 . S
S805 N807 1.610 . S
N806 S805 1.613 . S
N806 C809 1.350 . S
N807 S805 1.610 . S
N807 C808 1.351 . S
C808 C802 1.428 . S
C808 N807 1.351 . S
C808 C809 1.434 . S
C809 C800 1.429 . S
C809 N806 1.350 . S
C809 C808 1.434 . S
C810 C811 1.369 . S
C810 C812 1.419 . S
C810 H814 0.930 . S
C811 C810 1.369 . S
C811 C820 1.429 . S
C812 C810 1.419 . S
C812 C813 1.363 . S
C812 H815 0.929 . S
C813 C812 1.363 . S
C813 C819 1.428 . S
H814 C810 0.930 . S
H815 C812 0.929 . S
S816 N817 1.613 . S
S816 N818 1.610 . S
N817 S816 1.613 . S
N817 C820 1.350 . S
N818 S816 1.610 . S
N818 C819 1.351 . S
C819 C813 1.428 . S
C819 N818 1.351 . S
C819 C820 1.434 . S
C820 C811 1.429 . S
C820 N817 1.350 . S
C820 C819 1.434 . S
C821 C822 1.369 . S
C821 C823 1.419 . S
C821 H825 0.930 . S
C822 C821 1.369 . S
C822 C831 1.429 . S
C823 C821 1.419 . S
C823 C824 1.363 . S
C823 H826 0.929 . S
C824 C823 1.363 . S
C824 C830 1.428 . S
H825 C821 0.930 . S
H826 C823 0.929 . S
S827 N828 1.613 . S
S827 N829 1.610 . S
N828 S827 1.613 . S
N828 C831 1.350 . S
N829 S827 1.610 . S
N829 C830 1.351 . S
C830 C824 1.428 . S
C830 N829 1.351 . S
C830 C831 1.434 . S
C831 C822 1.429 . S
C831 N828 1.350 . S
C831 C830 1.434 . S
C832 C833 1.369 . S
C832 C834 1.419 . S
C832 H836 0.930 . S
C833 C832 1.369 . S
C833 C842 1.429 . S
C834 C832 1.419 . S
C834 C835 1.363 . S
C834 H837 0.929 . S
C835 C834 1.363 . S
C835 C841 1.428 . S
H836 C832 0.930 . S
H837 C834 0.929 . S
S838 N839 1.613 . S
S838 N840 1.610 . S
N839 S838 1.613 . S
N839 C842 1.350 . S
N840 S838 1.610 . S
N840 C841 1.351 . S
C841 C835 1.428 . S
C841 N840 1.351 . S
C841 C842 1.434 . S
C842 C833 1.429 . S
C842 N839 1.350 . S
C842 C841 1.434 . S
C843 C844 1.369 . S
C843 C845 1.419 . S
C843 H847 0.930 . S
C844 C843 1.369 . S
C844 C853 1.429 . S
C845 C843 1.419 . S
C845 C846 1.363 . S
C845 H848 0.929 . S
C846 C845 1.363 . S
C846 C852 1.428 . S
H847 C843 0.930 . S
H848 C845 0.929 . S
S849 N850 1.613 . S
S849 N851 1.610 . S
N850 S849 1.613 . S
N850 C853 1.350 . S
N851 S849 1.610 . S
N851 C852 1.351 . S
C852 C846 1.428 . S
C852 N851 1.351 . S
C852 C853 1.434 . S
C853 C844 1.429 . S
C853 N850 1.350 . S
C853 C852 1.434 . S
C854 C855 1.369 . S
C854 C856 1.419 . S
C854 H858 0.930 . S
C855 C854 1.369 . S
C855 C864 1.429 . S
C856 C854 1.419 . S
C856 C857 1.363 . S
C856 H859 0.929 . S
C857 C856 1.363 . S
C857 C863 1.428 . S
H858 C854 0.930 . S
H859 C856 0.929 . S
S860 N861 1.613 . S
S860 N862 1.610 . S
N861 S860 1.613 . S
N861 C864 1.350 . S
N862 S860 1.610 . S
N862 C863 1.351 . S
C863 C857 1.428 . S
C863 N862 1.351 . S
C863 C864 1.434 . S
C864 C855 1.429 . S
C864 N861 1.350 . S
C864 C863 1.434 . S
C865 C866 1.369 . S
C865 C867 1.419 . S
C865 H869 0.930 . S
C866 C865 1.369 . S
C866 C875 1.429 . S
C867 C865 1.419 . S
C867 C868 1.363 . S
C867 H870 0.929 . S
C868 C867 1.363 . S
C868 C874 1.428 . S
H869 C865 0.930 . S
H870 C867 0.929 . S
S871 N872 1.613 1_455 S
S871 N873 1.610 1_455 S
N872 S871 1.613 1_655 S
N872 C875 1.350 . S
N873 S871 1.610 1_655 S
N873 C874 1.351 . S
C874 C868 1.428 . S
C874 N873 1.351 . S
C874 C875 1.434 . S
C875 C866 1.429 . S
C875 N872 1.350 . S
C875 C874 1.434 . S
C876 C877 1.369 . S
C876 C878 1.419 . S
C876 H880 0.930 . S
C877 C876 1.369 . S
C877 C886 1.429 . S
C878 C876 1.419 . S
C878 C879 1.363 . S
C878 H881 0.929 . S
C879 C878 1.363 . S
C879 C885 1.428 . S
H880 C876 0.930 . S
H881 C878 0.929 . S
S882 N883 1.613 . S
S882 N884 1.610 . S
N883 S882 1.613 . S
N883 C886 1.350 . S
N884 S882 1.610 . S
N884 C885 1.351 . S
C885 C879 1.428 . S
C885 N884 1.351 . S
C885 C886 1.434 . S
C886 C877 1.429 . S
C886 N883 1.350 . S
C886 C885 1.434 . S
C887 C888 1.369 . S
C887 C889 1.419 . S
C887 H891 0.930 . S
C888 C887 1.369 . S
C888 C897 1.429 . S
C889 C887 1.419 . S
C889 C890 1.363 . S
C889 H892 0.929 . S
C890 C889 1.363 . S
C890 C896 1.428 . S
H891 C887 0.930 . S
H892 C889 0.929 . S
S893 N894 1.613 . S
S893 N895 1.610 . S
N894 S893 1.613 . S
N894 C897 1.350 . S
N895 S893 1.610 . S
N895 C896 1.351 . S
C896 C890 1.428 . S
C896 N895 1.351 . S
C896 C897 1.434 . S
C897 C888 1.429 . S
C897 N894 1.350 . S
C897 C896 1.434 . S
C898 C899 1.369 . S
C898 C900 1.419 . S
C898 H902 0.930 . S
C899 C898 1.369 . S
C899 C908 1.429 . S
C900 C898 1.419 . S
C900 C901 1.363 . S
C900 H903 0.929 . S
C901 C900 1.363 . S
C901 C907 1.428 . S
H902 C898 0.930 . S
H903 C900 0.929 . S
S904 N905 1.613 . S
S904 N906 1.610 . S
N905 S904 1.613 . S
N905 C908 1.350 . S
N906 S904 1.610 . S
N906 C907 1.351 . S
C907 C901 1.428 . S
C907 N906 1.351 . S
C907 C908 1.434 . S
C908 C899 1.429 . S
C908 N905 1.350 . S
C908 C907 1.434 . S
C909 C910 1.369 . S
C909 C911 1.419 . S
C909 H913 0.930 . S
C910 C909 1.369 . S
C910 C919 1.429 . S
C911 C909 1.419 . S
C911 C912 1.363 . S
C911 H914 0.929 . S
C912 C911 1.363 . S
C912 C918 1.428 . S
H913 C909 0.930 . S
H914 C911 0.929 . S
S915 N916 1.613 . S
S915 N917 1.610 . S
N916 S915 1.613 . S
N916 C919 1.350 . S
N917 S915 1.610 . S
N917 C918 1.351 . S
C918 C912 1.428 . S
C918 N917 1.351 . S
C918 C919 1.434 . S
C919 C910 1.429 . S
C919 N916 1.350 . S
C919 C918 1.434 . S
C657 C242 1.468 . S
C659 C394 1.495 . S
C670 C478 1.489 . S
C668 C301 1.504 . S
C681 C471 1.503 . S
C679 C162 1.465 . S
C690 C221 1.507 . S
C692 C387 1.496 . S
C703 C551 1.499 . S
C701 C82 1.506 . S
C714 C635 1.490 . S
C712 C141 1.470 . S
C723 C2 1.509 . S
C725 C628 1.504 . S
C734 C61 1.469 . S
C736 C544 1.494 . S
C747 C378 1.318 . S
C745 C42 1.501 . S
C758 C462 1.325 . S
C756 C21 1.548 . S
C769 C473 1.394 . S
C767 C122 1.516 . S
C780 C389 1.399 . S
C778 C101 1.556 . S
C791 C557 1.324 . S
C789 C202 1.538 . S
C800 C181 1.494 . S
C802 C641 1.325 . S
C813 C630 1.401 . S
C811 C282 1.549 . S
C822 C261 1.510 . S
C824 C546 1.400 . S
C835 C376 1.617 . S
C833 C15 1.602 . S
C846 C460 1.600 . S
C844 C55 1.583 . S
C855 C95 1.589 . S
C857 C467 1.601 . S
C868 C383 1.582 . S
C866 C135 1.573 . S
C879 C555 1.617 . S
C877 C175 1.594 . S
C888 C215 1.591 . S
C890 C639 1.598 . S
C899 C255 1.582 . S
C901 C646 1.601 . S
C910 C295 1.574 . S
C912 C562 1.583 . S
