# Generated by pormake.
# Topology ech, (8)-cn, num edge types: 1
# Building blocks:
#     Node 0, Type 0, BuildingBlock: TAGTUT_clean_sbu_3, # of connection points: 8
#     Node 1, Type 0, BuildingBlock: TAGTUT_clean_sbu_3, # of connection points: 8
#     Node 2, Type 0, BuildingBlock: TAGTUT_clean_sbu_3, # of connection points: 8
#     Node 3, Type 0, BuildingBlock: TAGTUT_clean_sbu_3, # of connection points: 8
#     Node 4, Type 0, BuildingBlock: TAGTUT_clean_sbu_3, # of connection points: 8
#     Node 5, Type 0, BuildingBlock: TAGTUT_clean_sbu_3, # of connection points: 8
#     Node 6, Type 0, BuildingBlock: TAGTUT_clean_sbu_3, # of connection points: 8
#     Node 7, Type 0, BuildingBlock: TAGTUT_clean_sbu_3, # of connection points: 8
#     Node 8, Type 0, BuildingBlock: TAGTUT_clean_sbu_3, # of connection points: 8
#     Node 9, Type 0, BuildingBlock: TAGTUT_clean_sbu_3, # of connection points: 8
#     Node 10, Type 0, BuildingBlock: TAGTUT_clean_sbu_3, # of connection points: 8
#     Node 11, Type 0, BuildingBlock: TAGTUT_clean_sbu_3, # of connection points: 8
#     Node 12, Type 0, BuildingBlock: TAGTUT_clean_sbu_3, # of connection points: 8
#     Node 13, Type 0, BuildingBlock: TAGTUT_clean_sbu_3, # of connection points: 8
#     Node 14, Type 0, BuildingBlock: TAGTUT_clean_sbu_3, # of connection points: 8
#     Node 15, Type 0, BuildingBlock: TAGTUT_clean_sbu_3, # of connection points: 8
#     Node 16, Type 0, BuildingBlock: TAGTUT_clean_sbu_3, # of connection points: 8
#     Node 17, Type 0, BuildingBlock: TAGTUT_clean_sbu_3, # of connection points: 8
#     Node 18, Type 0, BuildingBlock: TAGTUT_clean_sbu_3, # of connection points: 8
#     Node 19, Type 0, BuildingBlock: TAGTUT_clean_sbu_3, # of connection points: 8
#     Node 20, Type 0, BuildingBlock: TAGTUT_clean_sbu_3, # of connection points: 8
#     Node 21, Type 0, BuildingBlock: TAGTUT_clean_sbu_3, # of connection points: 8
#     Node 22, Type 0, BuildingBlock: TAGTUT_clean_sbu_3, # of connection points: 8
#     Node 23, Type 0, BuildingBlock: TAGTUT_clean_sbu_3, # of connection points: 8
#     Edge 24, Type (0, 0), BuildingBlock: UKIBIB_clean_linker_0, # of connection points: 2
#     Edge 25, Type (0, 0), BuildingBlock: UKIBIB_clean_linker_0, # of connection points: 2
#     Edge 26, Type (0, 0), BuildingBlock: UKIBIB_clean_linker_0, # of connection points: 2
#     Edge 27, Type (0, 0), BuildingBlock: UKIBIB_clean_linker_0, # of connection points: 2
#     Edge 28, Type (0, 0), BuildingBlock: UKIBIB_clean_linker_0, # of connection points: 2
#     Edge 29, Type (0, 0), BuildingBlock: UKIBIB_clean_linker_0, # of connection points: 2
#     Edge 30, Type (0, 0), BuildingBlock: UKIBIB_clean_linker_0, # of connection points: 2
#     Edge 31, Type (0, 0), BuildingBlock: UKIBIB_clean_linker_0, # of connection points: 2
#     Edge 32, Type (0, 0), BuildingBlock: UKIBIB_clean_linker_0, # of connection points: 2
#     Edge 33, Type (0, 0), BuildingBlock: UKIBIB_clean_linker_0, # of connection points: 2
#     Edge 34, Type (0, 0), BuildingBlock: UKIBIB_clean_linker_0, # of connection points: 2
#     Edge 35, Type (0, 0), BuildingBlock: UKIBIB_clean_linker_0, # of connection points: 2
#     Edge 36, Type (0, 0), BuildingBlock: UKIBIB_clean_linker_0, # of connection points: 2
#     Edge 37, Type (0, 0), BuildingBlock: UKIBIB_clean_linker_0, # of connection points: 2
#     Edge 38, Type (0, 0), BuildingBlock: UKIBIB_clean_linker_0, # of connection points: 2
#     Edge 39, Type (0, 0), BuildingBlock: UKIBIB_clean_linker_0, # of connection points: 2
#     Edge 40, Type (0, 0), BuildingBlock: UKIBIB_clean_linker_0, # of connection points: 2
#     Edge 41, Type (0, 0), BuildingBlock: UKIBIB_clean_linker_0, # of connection points: 2
#     Edge 42, Type (0, 0), BuildingBlock: UKIBIB_clean_linker_0, # of connection points: 2
#     Edge 43, Type (0, 0), BuildingBlock: UKIBIB_clean_linker_0, # of connection points: 2
#     Edge 44, Type (0, 0), BuildingBlock: UKIBIB_clean_linker_0, # of connection points: 2
#     Edge 45, Type (0, 0), BuildingBlock: UKIBIB_clean_linker_0, # of connection points: 2
#     Edge 46, Type (0, 0), BuildingBlock: UKIBIB_clean_linker_0, # of connection points: 2
#     Edge 47, Type (0, 0), BuildingBlock: UKIBIB_clean_linker_0, # of connection points: 2
#     Edge 48, Type (0, 0), BuildingBlock: UKIBIB_clean_linker_0, # of connection points: 2
#     Edge 49, Type (0, 0), BuildingBlock: UKIBIB_clean_linker_0, # of connection points: 2
#     Edge 50, Type (0, 0), BuildingBlock: UKIBIB_clean_linker_0, # of connection points: 2
#     Edge 51, Type (0, 0), BuildingBlock: UKIBIB_clean_linker_0, # of connection points: 2
#     Edge 52, Type (0, 0), BuildingBlock: UKIBIB_clean_linker_0, # of connection points: 2
#     Edge 53, Type (0, 0), BuildingBlock: UKIBIB_clean_linker_0, # of connection points: 2
#     Edge 54, Type (0, 0), BuildingBlock: UKIBIB_clean_linker_0, # of connection points: 2
#     Edge 55, Type (0, 0), BuildingBlock: UKIBIB_clean_linker_0, # of connection points: 2
#     Edge 56, Type (0, 0), BuildingBlock: UKIBIB_clean_linker_0, # of connection points: 2
#     Edge 57, Type (0, 0), BuildingBlock: UKIBIB_clean_linker_0, # of connection points: 2
#     Edge 58, Type (0, 0), BuildingBlock: UKIBIB_clean_linker_0, # of connection points: 2
#     Edge 59, Type (0, 0), BuildingBlock: UKIBIB_clean_linker_0, # of connection points: 2
#     Edge 60, Type (0, 0), BuildingBlock: UKIBIB_clean_linker_0, # of connection points: 2
#     Edge 61, Type (0, 0), BuildingBlock: UKIBIB_clean_linker_0, # of connection points: 2
#     Edge 62, Type (0, 0), BuildingBlock: UKIBIB_clean_linker_0, # of connection points: 2
#     Edge 63, Type (0, 0), BuildingBlock: UKIBIB_clean_linker_0, # of connection points: 2
#     Edge 64, Type (0, 0), BuildingBlock: UKIBIB_clean_linker_0, # of connection points: 2
#     Edge 65, Type (0, 0), BuildingBlock: UKIBIB_clean_linker_0, # of connection points: 2
#     Edge 66, Type (0, 0), BuildingBlock: UKIBIB_clean_linker_0, # of connection points: 2
#     Edge 67, Type (0, 0), BuildingBlock: UKIBIB_clean_linker_0, # of connection points: 2
#     Edge 68, Type (0, 0), BuildingBlock: UKIBIB_clean_linker_0, # of connection points: 2
#     Edge 69, Type (0, 0), BuildingBlock: UKIBIB_clean_linker_0, # of connection points: 2
#     Edge 70, Type (0, 0), BuildingBlock: UKIBIB_clean_linker_0, # of connection points: 2
#     Edge 71, Type (0, 0), BuildingBlock: UKIBIB_clean_linker_0, # of connection points: 2
#     Edge 72, Type (0, 0), BuildingBlock: UKIBIB_clean_linker_0, # of connection points: 2
#     Edge 73, Type (0, 0), BuildingBlock: UKIBIB_clean_linker_0, # of connection points: 2
#     Edge 74, Type (0, 0), BuildingBlock: UKIBIB_clean_linker_0, # of connection points: 2
#     Edge 75, Type (0, 0), BuildingBlock: UKIBIB_clean_linker_0, # of connection points: 2
#     Edge 76, Type (0, 0), BuildingBlock: UKIBIB_clean_linker_0, # of connection points: 2
#     Edge 77, Type (0, 0), BuildingBlock: UKIBIB_clean_linker_0, # of connection points: 2
#     Edge 78, Type (0, 0), BuildingBlock: UKIBIB_clean_linker_0, # of connection points: 2
#     Edge 79, Type (0, 0), BuildingBlock: UKIBIB_clean_linker_0, # of connection points: 2
#     Edge 80, Type (0, 0), BuildingBlock: UKIBIB_clean_linker_0, # of connection points: 2
#     Edge 81, Type (0, 0), BuildingBlock: UKIBIB_clean_linker_0, # of connection points: 2
#     Edge 82, Type (0, 0), BuildingBlock: UKIBIB_clean_linker_0, # of connection points: 2
#     Edge 83, Type (0, 0), BuildingBlock: UKIBIB_clean_linker_0, # of connection points: 2
#     Edge 84, Type (0, 0), BuildingBlock: UKIBIB_clean_linker_0, # of connection points: 2
#     Edge 85, Type (0, 0), BuildingBlock: UKIBIB_clean_linker_0, # of connection points: 2
#     Edge 86, Type (0, 0), BuildingBlock: UKIBIB_clean_linker_0, # of connection points: 2
#     Edge 87, Type (0, 0), BuildingBlock: UKIBIB_clean_linker_0, # of connection points: 2
#     Edge 88, Type (0, 0), BuildingBlock: UKIBIB_clean_linker_0, # of connection points: 2
#     Edge 89, Type (0, 0), BuildingBlock: UKIBIB_clean_linker_0, # of connection points: 2
#     Edge 90, Type (0, 0), BuildingBlock: UKIBIB_clean_linker_0, # of connection points: 2
#     Edge 91, Type (0, 0), BuildingBlock: UKIBIB_clean_linker_0, # of connection points: 2
#     Edge 92, Type (0, 0), BuildingBlock: UKIBIB_clean_linker_0, # of connection points: 2
#     Edge 93, Type (0, 0), BuildingBlock: UKIBIB_clean_linker_0, # of connection points: 2
#     Edge 94, Type (0, 0), BuildingBlock: UKIBIB_clean_linker_0, # of connection points: 2
#     Edge 95, Type (0, 0), BuildingBlock: UKIBIB_clean_linker_0, # of connection points: 2
#     Edge 96, Type (0, 0), BuildingBlock: UKIBIB_clean_linker_0, # of connection points: 2
#     Edge 97, Type (0, 0), BuildingBlock: UKIBIB_clean_linker_0, # of connection points: 2
#     Edge 98, Type (0, 0), BuildingBlock: UKIBIB_clean_linker_0, # of connection points: 2
#     Edge 99, Type (0, 0), BuildingBlock: UKIBIB_clean_linker_0, # of connection points: 2
#     Edge 100, Type (0, 0), BuildingBlock: UKIBIB_clean_linker_0, # of connection points: 2
#     Edge 101, Type (0, 0), BuildingBlock: UKIBIB_clean_linker_0, # of connection points: 2
#     Edge 102, Type (0, 0), BuildingBlock: UKIBIB_clean_linker_0, # of connection points: 2
#     Edge 103, Type (0, 0), BuildingBlock: UKIBIB_clean_linker_0, # of connection points: 2
#     Edge 104, Type (0, 0), BuildingBlock: UKIBIB_clean_linker_0, # of connection points: 2
#     Edge 105, Type (0, 0), BuildingBlock: UKIBIB_clean_linker_0, # of connection points: 2
#     Edge 106, Type (0, 0), BuildingBlock: UKIBIB_clean_linker_0, # of connection points: 2
#     Edge 107, Type (0, 0), BuildingBlock: UKIBIB_clean_linker_0, # of connection points: 2
#     Edge 108, Type (0, 0), BuildingBlock: UKIBIB_clean_linker_0, # of connection points: 2
#     Edge 109, Type (0, 0), BuildingBlock: UKIBIB_clean_linker_0, # of connection points: 2
#     Edge 110, Type (0, 0), BuildingBlock: UKIBIB_clean_linker_0, # of connection points: 2
#     Edge 111, Type (0, 0), BuildingBlock: UKIBIB_clean_linker_0, # of connection points: 2
#     Edge 112, Type (0, 0), BuildingBlock: UKIBIB_clean_linker_0, # of connection points: 2
#     Edge 113, Type (0, 0), BuildingBlock: UKIBIB_clean_linker_0, # of connection points: 2
#     Edge 114, Type (0, 0), BuildingBlock: UKIBIB_clean_linker_0, # of connection points: 2
#     Edge 115, Type (0, 0), BuildingBlock: UKIBIB_clean_linker_0, # of connection points: 2
#     Edge 116, Type (0, 0), BuildingBlock: UKIBIB_clean_linker_0, # of connection points: 2
#     Edge 117, Type (0, 0), BuildingBlock: UKIBIB_clean_linker_0, # of connection points: 2
#     Edge 118, Type (0, 0), BuildingBlock: UKIBIB_clean_linker_0, # of connection points: 2
#     Edge 119, Type (0, 0), BuildingBlock: UKIBIB_clean_linker_0, # of connection points: 2
# Relax obj value: 0.259
# Max RMSD: 0.249
# Mean RMSD: 0.248
data_MOF--net-ech--node1-TAGTUT_clean_sbu_3--edge1-UKIBIB_clean_linker_0
_symmetry_space_group_name_H-M    P1
_symmetry_Int_Tables_number       1
_symmetry_cell_setting            triclinic
loop_
_symmetry_equiv_pos_as_xyz
'x, y, z'
_cell_length_a     61.135
_cell_length_b     61.359
_cell_length_c     61.099
_cell_angle_alpha  90.186
_cell_angle_beta   90.000
_cell_angle_gamma  90.000
loop_
_atom_site_label
_atom_site_type_symbol
_atom_site_fract_x
_atom_site_fract_y
_atom_site_fract_z
_atom_type_partial_charge
C0 C 0.12588 0.25241 0.44352 0.0
C1 C 0.19196 0.27425 0.41294 0.0
C2 C 0.15367 0.29503 0.36385 0.0
Mg3 Mg 0.07418 0.27256 0.44227 0.0
Mg4 Mg 0.07767 0.32848 0.44497 0.0
O5 O 0.08598 0.30014 0.43249 0.0
Mg6 Mg 0.11566 0.29561 0.42354 0.0
O7 O 0.14497 0.28935 0.41442 0.0
Mg8 Mg 0.14497 0.26165 0.39916 0.0
Mg9 Mg 0.16453 0.31366 0.40717 0.0
C10 C 0.10181 0.33581 0.40252 0.0
O11 O 0.12655 0.31351 0.44896 0.0
O12 O 0.04305 0.28464 0.43578 0.0
O13 O 0.15914 0.32594 0.43679 0.0
O14 O 0.07461 0.28163 0.47414 0.0
O15 O 0.04725 0.32167 0.43885 0.0
O16 O 0.08150 0.31822 0.47498 0.0
O17 O 0.10926 0.27294 0.39821 0.0
O18 O 0.07675 0.26173 0.41094 0.0
C19 C 0.08960 0.26461 0.39620 0.0
C20 C 0.03685 0.30523 0.43298 0.0
O21 O 0.11393 0.32061 0.40238 0.0
O22 O 0.17807 0.25879 0.40657 0.0
O23 O 0.08870 0.34267 0.41797 0.0
O24 O 0.14947 0.27571 0.36958 0.0
O25 O 0.18934 0.29422 0.41068 0.0
O26 O 0.15802 0.31142 0.37592 0.0
O27 O 0.11136 0.26815 0.44390 0.0
O28 O 0.13703 0.24733 0.42799 0.0
C29 C 0.07838 0.29960 0.48358 0.0
C30 C 0.14379 0.32227 0.45120 0.0
C31 C 0.41143 0.73504 0.89592 0.0
C32 C 0.46425 0.69445 0.93237 0.0
C33 C 0.42286 0.70022 0.98311 0.0
Mg34 Mg 0.35608 0.73805 0.89904 0.0
Mg35 Mg 0.33649 0.68609 0.90688 0.0
O36 O 0.35609 0.71040 0.91419 0.0
Mg37 Mg 0.38542 0.70413 0.92320 0.0
O38 O 0.41512 0.69959 0.93204 0.0
Mg39 Mg 0.42697 0.72717 0.94191 0.0
Mg40 Mg 0.42344 0.67126 0.94437 0.0
C41 C 0.35734 0.67755 0.95082 0.0
O42 O 0.38706 0.67907 0.90192 0.0
O43 O 0.32300 0.74096 0.90656 0.0
O44 O 0.41231 0.65703 0.91735 0.0
O45 O 0.35148 0.72394 0.86942 0.0
O46 O 0.31170 0.70556 0.91055 0.0
O47 O 0.34291 0.68825 0.87562 0.0
O48 O 0.38981 0.73162 0.94366 0.0
O49 O 0.36411 0.75244 0.92792 0.0
C50 C 0.37530 0.74737 0.94340 0.0
C51 C 0.30911 0.72554 0.91291 0.0
O52 O 0.37459 0.68629 0.94857 0.0
O53 O 0.45808 0.71505 0.93528 0.0
O54 O 0.34195 0.67387 0.93644 0.0
O55 O 0.42662 0.71817 0.97374 0.0
O56 O 0.45385 0.67803 0.93820 0.0
O57 O 0.41970 0.68159 0.97444 0.0
O58 O 0.39177 0.72673 0.89795 0.0
O59 O 0.42433 0.73794 0.91063 0.0
C60 C 0.34724 0.70461 0.86361 0.0
C61 C 0.39917 0.66387 0.90196 0.0
C62 C 0.58960 0.23539 0.60380 0.0
C63 C 0.53685 0.19477 0.56702 0.0
C64 C 0.57838 0.20040 0.51642 0.0
Mg65 Mg 0.64497 0.23835 0.60084 0.0
Mg66 Mg 0.66453 0.18634 0.59283 0.0
O67 O 0.64497 0.21065 0.58558 0.0
Mg68 Mg 0.61566 0.20439 0.57646 0.0
O69 O 0.58598 0.19986 0.56751 0.0
Mg70 Mg 0.57418 0.22744 0.55773 0.0
Mg71 Mg 0.57767 0.17152 0.55503 0.0
C72 C 0.64379 0.17773 0.54880 0.0
O73 O 0.61393 0.17939 0.59762 0.0
O74 O 0.67807 0.24121 0.59343 0.0
O75 O 0.58870 0.15733 0.58203 0.0
O76 O 0.64947 0.22429 0.63042 0.0
O77 O 0.68934 0.20578 0.58932 0.0
O78 O 0.65802 0.18858 0.62408 0.0
O79 O 0.61136 0.23185 0.55610 0.0
O80 O 0.63703 0.25267 0.57201 0.0
C81 C 0.62588 0.24759 0.55648 0.0
C82 C 0.69196 0.22575 0.58706 0.0
O83 O 0.62655 0.18649 0.55104 0.0
O84 O 0.54305 0.21536 0.56422 0.0
O85 O 0.65914 0.17406 0.56321 0.0
O86 O 0.57461 0.21837 0.52586 0.0
O87 O 0.54725 0.17833 0.56115 0.0
O88 O 0.58150 0.18178 0.52502 0.0
O89 O 0.60926 0.22706 0.60179 0.0
O90 O 0.57675 0.23827 0.58906 0.0
C91 C 0.65367 0.20497 0.63615 0.0
C92 C 0.60181 0.16419 0.59748 0.0
C93 C 0.91143 0.76496 0.10408 0.0
C94 C 0.96425 0.80555 0.06763 0.0
C95 C 0.92286 0.79978 0.01689 0.0
Mg96 Mg 0.85608 0.76195 0.10096 0.0
Mg97 Mg 0.83649 0.81391 0.09312 0.0
O98 O 0.85609 0.78960 0.08581 0.0
Mg99 Mg 0.88542 0.79587 0.07680 0.0
O100 O 0.91512 0.80041 0.06796 0.0
Mg101 Mg 0.92697 0.77283 0.05809 0.0
Mg102 Mg 0.92344 0.82874 0.05563 0.0
C103 C 0.85734 0.82245 0.04918 0.0
O104 O 0.88706 0.82093 0.09808 0.0
O105 O 0.82300 0.75904 0.09344 0.0
O106 O 0.91231 0.84297 0.08265 0.0
O107 O 0.85148 0.77606 0.13058 0.0
O108 O 0.81170 0.79444 0.08945 0.0
O109 O 0.84291 0.81175 0.12438 0.0
O110 O 0.88981 0.76838 0.05634 0.0
O111 O 0.86411 0.74756 0.07208 0.0
C112 C 0.87530 0.75263 0.05660 0.0
C113 C 0.80911 0.77446 0.08709 0.0
O114 O 0.87459 0.81371 0.05143 0.0
O115 O 0.95808 0.78495 0.06472 0.0
O116 O 0.84195 0.82613 0.06356 0.0
O117 O 0.92662 0.78183 0.02626 0.0
O118 O 0.95385 0.82197 0.06180 0.0
O119 O 0.91970 0.81841 0.02556 0.0
O120 O 0.89177 0.77327 0.10205 0.0
O121 O 0.92433 0.76206 0.08937 0.0
C122 C 0.84724 0.79539 0.13639 0.0
C123 C 0.89917 0.83613 0.09804 0.0
C124 C 0.44352 0.12583 0.25195 0.0
C125 C 0.41302 0.19176 0.27402 0.0
C126 C 0.36385 0.15372 0.29488 0.0
Mg127 Mg 0.44214 0.07436 0.27210 0.0
Mg128 Mg 0.44472 0.07792 0.32826 0.0
O129 O 0.43232 0.08617 0.29982 0.0
Mg130 Mg 0.42344 0.11575 0.29533 0.0
O131 O 0.41439 0.14496 0.28910 0.0
Mg132 Mg 0.39919 0.14494 0.26131 0.0
Mg133 Mg 0.40712 0.16450 0.31356 0.0
C134 C 0.40232 0.10205 0.33570 0.0
O135 O 0.44883 0.12659 0.31330 0.0
O136 O 0.43557 0.04337 0.28419 0.0
O137 O 0.43669 0.15910 0.32585 0.0
O138 O 0.47397 0.07475 0.28117 0.0
O139 O 0.43857 0.04761 0.32138 0.0
O140 O 0.47474 0.08167 0.31793 0.0
O141 O 0.39816 0.10938 0.27259 0.0
O142 O 0.41085 0.07695 0.26126 0.0
C143 C 0.39614 0.08978 0.26419 0.0
C144 C 0.43272 0.03723 0.30486 0.0
O145 O 0.40223 0.11411 0.32047 0.0
O146 O 0.40666 0.17790 0.25848 0.0
O147 O 0.41773 0.08898 0.34255 0.0
O148 O 0.36961 0.14950 0.27547 0.0
O149 O 0.41071 0.18918 0.29407 0.0
O150 O 0.37588 0.15806 0.31134 0.0
O151 O 0.44384 0.11139 0.26773 0.0
O152 O 0.42803 0.13695 0.24688 0.0
C153 C 0.48337 0.07852 0.29922 0.0
C154 C 0.45107 0.14378 0.32213 0.0
C155 C 0.05751 0.87435 0.75386 0.0
C156 C 0.08820 0.80858 0.77572 0.0
C157 C 0.13733 0.84681 0.79657 0.0
Mg158 Mg 0.05882 0.92591 0.77412 0.0
Mg159 Mg 0.05636 0.92259 0.83027 0.0
O160 O 0.06872 0.91424 0.80179 0.0
Mg161 Mg 0.07766 0.88466 0.79722 0.0
O162 O 0.08676 0.85544 0.79091 0.0
Mg163 Mg 0.10190 0.85537 0.76309 0.0
Mg164 Mg 0.09412 0.83603 0.81531 0.0
C165 C 0.09883 0.89858 0.83758 0.0
O166 O 0.05233 0.87385 0.81522 0.0
O167 O 0.06534 0.95696 0.78626 0.0
O168 O 0.06456 0.84141 0.82767 0.0
O169 O 0.02701 0.92549 0.78326 0.0
O170 O 0.06243 0.95288 0.82344 0.0
O171 O 0.02633 0.91873 0.82000 0.0
O172 O 0.10287 0.89098 0.77444 0.0
O173 O 0.09009 0.92334 0.76321 0.0
C174 C 0.10484 0.91055 0.76608 0.0
C175 C 0.06823 0.96320 0.80693 0.0
O176 O 0.09891 0.88646 0.82231 0.0
O177 O 0.09450 0.82238 0.76020 0.0
O178 O 0.08341 0.91165 0.84449 0.0
O179 O 0.13151 0.85094 0.77717 0.0
O180 O 0.09054 0.81125 0.79578 0.0
O181 O 0.12534 0.84252 0.81303 0.0
O182 O 0.05719 0.88886 0.76967 0.0
O183 O 0.07301 0.86323 0.74873 0.0
C184 C 0.01766 0.92178 0.80131 0.0
C185 C 0.05014 0.85669 0.82402 0.0
C186 C 0.89614 0.41022 0.73581 0.0
C187 C 0.93272 0.46277 0.69514 0.0
C188 C 0.98337 0.42148 0.70078 0.0
Mg189 Mg 0.89919 0.35506 0.73869 0.0
Mg190 Mg 0.90712 0.33550 0.68644 0.0
O191 O 0.91439 0.35504 0.71090 0.0
Mg192 Mg 0.92344 0.38425 0.70467 0.0
O193 O 0.93232 0.41383 0.70018 0.0
Mg194 Mg 0.94214 0.42564 0.72790 0.0
Mg195 Mg 0.94472 0.42208 0.67174 0.0
C196 C 0.95107 0.35622 0.67787 0.0
O197 O 0.90223 0.38589 0.67953 0.0
O198 O 0.90666 0.32210 0.74152 0.0
O199 O 0.91773 0.41102 0.65745 0.0
O200 O 0.86961 0.35050 0.72453 0.0
O201 O 0.91071 0.31082 0.70593 0.0
O202 O 0.87588 0.34194 0.68866 0.0
O203 O 0.94384 0.38861 0.73227 0.0
O204 O 0.92803 0.36305 0.75312 0.0
C205 C 0.94352 0.37417 0.74805 0.0
C206 C 0.91302 0.30824 0.72598 0.0
O207 O 0.94883 0.37341 0.68670 0.0
O208 O 0.93557 0.45663 0.71581 0.0
O209 O 0.93669 0.34090 0.67415 0.0
O210 O 0.97397 0.42525 0.71883 0.0
O211 O 0.93857 0.45239 0.67862 0.0
O212 O 0.97474 0.41833 0.68207 0.0
O213 O 0.89816 0.39062 0.72741 0.0
O214 O 0.91085 0.42305 0.73874 0.0
C215 C 0.86385 0.34628 0.70512 0.0
C216 C 0.90232 0.39795 0.66430 0.0
C217 C 0.60484 0.58945 0.23392 0.0
C218 C 0.56823 0.53680 0.19307 0.0
C219 C 0.51766 0.57822 0.19869 0.0
Mg220 Mg 0.60190 0.64463 0.23691 0.0
Mg221 Mg 0.59412 0.66397 0.18469 0.0
O222 O 0.58676 0.64456 0.20909 0.0
Mg223 Mg 0.57766 0.61534 0.20278 0.0
O224 O 0.56872 0.58576 0.19821 0.0
Mg225 Mg 0.55882 0.57409 0.22588 0.0
Mg226 Mg 0.55636 0.57741 0.16973 0.0
C227 C 0.55014 0.64331 0.17598 0.0
O228 O 0.59891 0.61354 0.17769 0.0
O229 O 0.59450 0.67762 0.23980 0.0
O230 O 0.58341 0.58835 0.15551 0.0
O231 O 0.63151 0.64906 0.22283 0.0
O232 O 0.59054 0.68875 0.20422 0.0
O233 O 0.62534 0.65748 0.18697 0.0
O234 O 0.55719 0.61114 0.23033 0.0
O235 O 0.57301 0.63677 0.25127 0.0
C236 C 0.55751 0.62565 0.24614 0.0
C237 C 0.58820 0.69142 0.22428 0.0
O238 O 0.55233 0.62615 0.18478 0.0
O239 O 0.56534 0.54304 0.21374 0.0
O240 O 0.56456 0.65859 0.17233 0.0
O241 O 0.52701 0.57451 0.21674 0.0
O242 O 0.56243 0.54712 0.17656 0.0
O243 O 0.52633 0.58127 0.18000 0.0
O244 O 0.60287 0.60902 0.22556 0.0
O245 O 0.59009 0.57666 0.23679 0.0
C246 C 0.63733 0.65319 0.20343 0.0
C247 C 0.59883 0.60142 0.16242 0.0
C248 C 0.25249 0.44325 0.12592 0.0
C249 C 0.27435 0.41283 0.19201 0.0
C250 C 0.29523 0.36381 0.15363 0.0
Mg251 Mg 0.27274 0.44184 0.07421 0.0
Mg252 Mg 0.32886 0.44434 0.07774 0.0
O253 O 0.30041 0.43202 0.08601 0.0
Mg254 Mg 0.29584 0.42318 0.11570 0.0
O255 O 0.28953 0.41417 0.14501 0.0
Mg256 Mg 0.26174 0.39907 0.14496 0.0
Mg257 Mg 0.31392 0.40690 0.16458 0.0
C258 C 0.33619 0.40209 0.10183 0.0
O259 O 0.31380 0.44845 0.12664 0.0
O260 O 0.28489 0.43528 0.04305 0.0
O261 O 0.32626 0.43634 0.15924 0.0
O262 O 0.28185 0.47354 0.07470 0.0
O263 O 0.32205 0.43822 0.04728 0.0
O264 O 0.31857 0.47427 0.08162 0.0
O265 O 0.27309 0.39803 0.10924 0.0
O266 O 0.26186 0.41068 0.07672 0.0
C267 C 0.26474 0.39602 0.08956 0.0
C268 C 0.30556 0.43241 0.03686 0.0
O269 O 0.32094 0.40202 0.11395 0.0
O270 O 0.25885 0.40651 0.17809 0.0
O271 O 0.34309 0.41742 0.08875 0.0
O272 O 0.27584 0.36958 0.14943 0.0
O273 O 0.29440 0.41050 0.18940 0.0
O274 O 0.31167 0.37577 0.15802 0.0
O275 O 0.26829 0.44354 0.11141 0.0
O276 O 0.24737 0.42782 0.13705 0.0
C277 C 0.29989 0.48288 0.07849 0.0
C278 C 0.32259 0.45067 0.14390 0.0
C279 C 0.75249 0.05675 0.87408 0.0
C280 C 0.77435 0.08717 0.80799 0.0
C281 C 0.79523 0.13619 0.84637 0.0
Mg282 Mg 0.77274 0.05816 0.92579 0.0
Mg283 Mg 0.82886 0.05566 0.92226 0.0
O284 O 0.80041 0.06798 0.91399 0.0
Mg285 Mg 0.79584 0.07682 0.88430 0.0
O286 O 0.78953 0.08583 0.85499 0.0
Mg287 Mg 0.76174 0.10093 0.85504 0.0
Mg288 Mg 0.81392 0.09310 0.83542 0.0
C289 C 0.83619 0.09791 0.89817 0.0
O290 O 0.81380 0.05155 0.87336 0.0
O291 O 0.78489 0.06472 0.95695 0.0
O292 O 0.82626 0.06366 0.84076 0.0
O293 O 0.78185 0.02646 0.92530 0.0
O294 O 0.82205 0.06178 0.95272 0.0
O295 O 0.81857 0.02573 0.91838 0.0
O296 O 0.77309 0.10197 0.89076 0.0
O297 O 0.76186 0.08932 0.92328 0.0
C298 C 0.76474 0.10398 0.91044 0.0
C299 C 0.80556 0.06759 0.96314 0.0
O300 O 0.82094 0.09798 0.88605 0.0
O301 O 0.75885 0.09349 0.82191 0.0
O302 O 0.84309 0.08258 0.91125 0.0
O303 O 0.77584 0.13042 0.85057 0.0
O304 O 0.79440 0.08950 0.81060 0.0
O305 O 0.81167 0.12423 0.84198 0.0
O306 O 0.76829 0.05646 0.88859 0.0
O307 O 0.74737 0.07218 0.86295 0.0
C308 C 0.79989 0.01712 0.92151 0.0
C309 C 0.82259 0.04933 0.85610 0.0
C310 C 0.73522 0.89617 0.41018 0.0
C311 C 0.69426 0.93284 0.46281 0.0
C312 C 0.70025 0.98316 0.42137 0.0
Mg313 Mg 0.73849 0.89903 0.35480 0.0
Mg314 Mg 0.68642 0.90693 0.33497 0.0
O315 O 0.71073 0.91421 0.35468 0.0
Mg316 Mg 0.70431 0.92333 0.38399 0.0
O317 O 0.69963 0.93228 0.41368 0.0
Mg318 Mg 0.72727 0.94207 0.42564 0.0
Mg319 Mg 0.67117 0.94469 0.42186 0.0
C320 C 0.67776 0.95080 0.35575 0.0
O321 O 0.67916 0.90223 0.38555 0.0
O322 O 0.74155 0.90636 0.32171 0.0
O323 O 0.65693 0.91778 0.41070 0.0
O324 O 0.72433 0.86956 0.35017 0.0
O325 O 0.70606 0.91041 0.31025 0.0
O326 O 0.68855 0.87582 0.34144 0.0
O327 O 0.73190 0.94363 0.38847 0.0
O328 O 0.75289 0.92777 0.36287 0.0
C329 C 0.74776 0.94325 0.37403 0.0
C330 C 0.72613 0.91267 0.30774 0.0
O331 O 0.68647 0.94861 0.37304 0.0
O332 O 0.71496 0.93564 0.45672 0.0
O333 O 0.67413 0.93643 0.34034 0.0
O334 O 0.71824 0.97379 0.42521 0.0
O335 O 0.67783 0.93866 0.45233 0.0
O336 O 0.68156 0.97458 0.41813 0.0
O337 O 0.72697 0.89814 0.39047 0.0
O338 O 0.73808 0.91087 0.42308 0.0
C339 C 0.70495 0.86383 0.34586 0.0
C340 C 0.66384 0.90238 0.39760 0.0
C341 C 0.23522 0.60383 0.58982 0.0
C342 C 0.19426 0.56716 0.53719 0.0
C343 C 0.20025 0.51684 0.57863 0.0
Mg344 Mg 0.23849 0.60097 0.64520 0.0
Mg345 Mg 0.18642 0.59307 0.66503 0.0
O346 O 0.21073 0.58579 0.64532 0.0
Mg347 Mg 0.20431 0.57667 0.61601 0.0
O348 O 0.19963 0.56772 0.58632 0.0
Mg349 Mg 0.22727 0.55793 0.57436 0.0
Mg350 Mg 0.17117 0.55531 0.57814 0.0
C351 C 0.17776 0.54920 0.64425 0.0
O352 O 0.17916 0.59777 0.61445 0.0
O353 O 0.24155 0.59364 0.67829 0.0
O354 O 0.15693 0.58222 0.58930 0.0
O355 O 0.22433 0.63044 0.64983 0.0
O356 O 0.20606 0.58959 0.68975 0.0
O357 O 0.18855 0.62418 0.65856 0.0
O358 O 0.23190 0.55637 0.61153 0.0
O359 O 0.25289 0.57223 0.63713 0.0
C360 C 0.24776 0.55675 0.62597 0.0
C361 C 0.22613 0.58733 0.69226 0.0
O362 O 0.18647 0.55139 0.62696 0.0
O363 O 0.21496 0.56436 0.54328 0.0
O364 O 0.17413 0.56357 0.65966 0.0
O365 O 0.21824 0.52621 0.57479 0.0
O366 O 0.17783 0.56134 0.54767 0.0
O367 O 0.18156 0.52542 0.58187 0.0
O368 O 0.22697 0.60186 0.60953 0.0
O369 O 0.23808 0.58913 0.57692 0.0
C370 C 0.20495 0.63617 0.65414 0.0
C371 C 0.16384 0.59762 0.60240 0.0
C372 C 0.90926 0.73467 0.60619 0.0
C373 C 0.96195 0.69388 0.56950 0.0
C374 C 0.92047 0.69953 0.51887 0.0
Mg375 Mg 0.85390 0.73775 0.60318 0.0
Mg376 Mg 0.83423 0.68578 0.59523 0.0
O377 O 0.85385 0.71003 0.58795 0.0
Mg378 Mg 0.88315 0.70370 0.57887 0.0
O379 O 0.91283 0.69909 0.56995 0.0
Mg380 Mg 0.92470 0.72662 0.56013 0.0
Mg381 Mg 0.92109 0.67071 0.55751 0.0
C382 C 0.85498 0.67705 0.55123 0.0
O383 O 0.88481 0.67871 0.60007 0.0
O384 O 0.82081 0.74067 0.59575 0.0
O385 O 0.91000 0.65659 0.58452 0.0
O386 O 0.84935 0.72374 0.63277 0.0
O387 O 0.80946 0.70526 0.59167 0.0
O388 O 0.84072 0.68804 0.62648 0.0
O389 O 0.88753 0.73112 0.55847 0.0
O390 O 0.86190 0.75202 0.57433 0.0
C391 C 0.87305 0.74688 0.55882 0.0
C392 C 0.80689 0.72524 0.58938 0.0
O393 O 0.87224 0.68579 0.55346 0.0
O394 O 0.95580 0.71448 0.56667 0.0
O395 O 0.83961 0.67344 0.56562 0.0
O396 O 0.92427 0.71751 0.52828 0.0
O397 O 0.95152 0.67746 0.56365 0.0
O398 O 0.91730 0.68094 0.52748 0.0
O399 O 0.88959 0.72638 0.60417 0.0
O400 O 0.92213 0.73750 0.59145 0.0
C401 C 0.84510 0.70444 0.63853 0.0
C402 C 0.89690 0.66349 0.59995 0.0
C403 C 0.58894 0.26324 0.10454 0.0
C404 C 0.53628 0.30383 0.06787 0.0
C405 C 0.57781 0.29795 0.01727 0.0
Mg406 Mg 0.64430 0.26017 0.10159 0.0
Mg407 Mg 0.66396 0.31210 0.09374 0.0
O408 O 0.64436 0.28780 0.08640 0.0
Mg409 Mg 0.61506 0.29409 0.07730 0.0
O410 O 0.58539 0.29864 0.06836 0.0
Mg411 Mg 0.57355 0.27106 0.05849 0.0
Mg412 Mg 0.57714 0.32696 0.05596 0.0
C413 C 0.64325 0.32061 0.04973 0.0
O414 O 0.61338 0.31917 0.09854 0.0
O415 O 0.67740 0.25722 0.09418 0.0
O416 O 0.58820 0.34122 0.08301 0.0
O417 O 0.64883 0.27432 0.13121 0.0
O418 O 0.68874 0.29261 0.09017 0.0
O419 O 0.65745 0.30999 0.12498 0.0
O420 O 0.61072 0.26657 0.05686 0.0
O421 O 0.63634 0.24575 0.07270 0.0
C422 C 0.62521 0.25081 0.05719 0.0
C423 C 0.69133 0.27262 0.08785 0.0
O424 O 0.62599 0.31188 0.05193 0.0
O425 O 0.54244 0.28322 0.06501 0.0
O426 O 0.65861 0.32429 0.06415 0.0
O427 O 0.57401 0.28002 0.02665 0.0
O428 O 0.54670 0.32023 0.06205 0.0
O429 O 0.58096 0.31659 0.02592 0.0
O430 O 0.60862 0.27152 0.10256 0.0
O431 O 0.57609 0.26033 0.08979 0.0
C432 C 0.65306 0.29365 0.13700 0.0
C433 C 0.60129 0.33439 0.09844 0.0
C434 C 0.37305 0.75312 0.44118 0.0
C435 C 0.30689 0.77476 0.41062 0.0
C436 C 0.34510 0.79556 0.36147 0.0
Mg437 Mg 0.42470 0.77338 0.43987 0.0
Mg438 Mg 0.42109 0.82929 0.44249 0.0
O439 O 0.41283 0.80091 0.43005 0.0
Mg440 Mg 0.38315 0.79630 0.42113 0.0
O441 O 0.35385 0.78997 0.41205 0.0
Mg442 Mg 0.35390 0.76225 0.39682 0.0
Mg443 Mg 0.33423 0.81422 0.40477 0.0
C444 C 0.39690 0.83651 0.40005 0.0
O445 O 0.37224 0.81421 0.44654 0.0
O446 O 0.45580 0.78552 0.43333 0.0
O447 O 0.33961 0.82656 0.43438 0.0
O448 O 0.42427 0.78249 0.47172 0.0
O449 O 0.45152 0.82254 0.43635 0.0
O450 O 0.41730 0.81906 0.47252 0.0
O451 O 0.38959 0.77362 0.39583 0.0
O452 O 0.42213 0.76250 0.40855 0.0
C453 C 0.40926 0.76533 0.39381 0.0
C454 C 0.46195 0.80612 0.43050 0.0
O455 O 0.38481 0.82129 0.39993 0.0
O456 O 0.32081 0.75933 0.40425 0.0
O457 O 0.41000 0.84341 0.41548 0.0
O458 O 0.34935 0.77626 0.36723 0.0
O459 O 0.30946 0.79474 0.40833 0.0
O460 O 0.34072 0.81196 0.37352 0.0
O461 O 0.38753 0.76888 0.44153 0.0
O462 O 0.36190 0.74798 0.42567 0.0
C463 C 0.42047 0.80047 0.48113 0.0
C464 C 0.35498 0.82295 0.44877 0.0
C465 C 0.12521 0.24919 0.94281 0.0
C466 C 0.19133 0.22738 0.91215 0.0
C467 C 0.15306 0.20635 0.86300 0.0
Mg468 Mg 0.07355 0.22894 0.94151 0.0
Mg469 Mg 0.07714 0.17304 0.94404 0.0
O470 O 0.08539 0.20136 0.93164 0.0
Mg471 Mg 0.11506 0.20591 0.92270 0.0
O472 O 0.14436 0.21220 0.91360 0.0
Mg473 Mg 0.14430 0.23983 0.89841 0.0
Mg474 Mg 0.16396 0.18790 0.90626 0.0
C475 C 0.10129 0.16561 0.90156 0.0
O476 O 0.12599 0.18812 0.94807 0.0
O477 O 0.04244 0.21678 0.93499 0.0
O478 O 0.15861 0.17571 0.93585 0.0
O479 O 0.07401 0.21998 0.97335 0.0
O480 O 0.04670 0.17977 0.93795 0.0
O481 O 0.08096 0.18341 0.97408 0.0
O482 O 0.10862 0.22848 0.89744 0.0
O483 O 0.07609 0.23967 0.91021 0.0
C484 C 0.08894 0.23676 0.89546 0.0
C485 C 0.03628 0.19617 0.93213 0.0
O486 O 0.11338 0.18083 0.90146 0.0
O487 O 0.17740 0.24278 0.90582 0.0
O488 O 0.08820 0.15878 0.91699 0.0
O489 O 0.14883 0.22568 0.86879 0.0
O490 O 0.18874 0.20739 0.90983 0.0
O491 O 0.15745 0.19001 0.87502 0.0
O492 O 0.11072 0.23343 0.94314 0.0
O493 O 0.13634 0.25425 0.92730 0.0
C494 C 0.07781 0.20205 0.98273 0.0
C495 C 0.14325 0.17939 0.95027 0.0
C496 C 0.60289 0.91213 0.73461 0.0
C497 C 0.56632 0.96466 0.69390 0.0
C498 C 0.51568 0.92336 0.69951 0.0
Mg499 Mg 0.59985 0.85698 0.73750 0.0
Mg500 Mg 0.59197 0.83740 0.68525 0.0
O501 O 0.58467 0.85694 0.70970 0.0
Mg502 Mg 0.57562 0.88615 0.70346 0.0
O503 O 0.56673 0.91572 0.69895 0.0
Mg504 Mg 0.55688 0.92754 0.72666 0.0
Mg505 Mg 0.55435 0.92397 0.67050 0.0
C506 C 0.54802 0.85811 0.67665 0.0
O507 O 0.59684 0.88779 0.67833 0.0
O508 O 0.59240 0.82401 0.74033 0.0
O509 O 0.58136 0.91291 0.65623 0.0
O510 O 0.62944 0.85242 0.72337 0.0
O511 O 0.58837 0.81272 0.70474 0.0
O512 O 0.62320 0.84385 0.68749 0.0
O513 O 0.55520 0.89051 0.73104 0.0
O514 O 0.57100 0.86495 0.75191 0.0
C515 C 0.55551 0.87607 0.74682 0.0
C516 C 0.58605 0.81015 0.72479 0.0
O517 O 0.55025 0.87530 0.68547 0.0
O518 O 0.56345 0.95853 0.71457 0.0
O519 O 0.56240 0.84278 0.67294 0.0
O520 O 0.52506 0.92713 0.71756 0.0
O521 O 0.56048 0.95428 0.67738 0.0
O522 O 0.52432 0.92020 0.68081 0.0
O523 O 0.60088 0.89253 0.72621 0.0
O524 O 0.58817 0.92496 0.73752 0.0
C525 C 0.63522 0.84820 0.70395 0.0
C526 C 0.59676 0.89984 0.66309 0.0
C527 C 0.89653 0.08973 0.23535 0.0
C528 C 0.93331 0.03724 0.19444 0.0
C529 C 0.98380 0.07872 0.20028 0.0
Mg530 Mg 0.89937 0.14490 0.23849 0.0
Mg531 Mg 0.90723 0.16439 0.18633 0.0
O532 O 0.91457 0.14493 0.21070 0.0
Mg533 Mg 0.92374 0.11574 0.20433 0.0
O534 O 0.93273 0.08619 0.19971 0.0
Mg535 Mg 0.94259 0.07446 0.22737 0.0
Mg536 Mg 0.94516 0.07793 0.17123 0.0
C537 C 0.95126 0.14382 0.17767 0.0
O538 O 0.90254 0.11397 0.17919 0.0
O539 O 0.90671 0.17790 0.24147 0.0
O540 O 0.91813 0.08886 0.15699 0.0
O541 O 0.86978 0.14932 0.22435 0.0
O542 O 0.91073 0.18913 0.20593 0.0
O543 O 0.87602 0.15785 0.18852 0.0
O544 O 0.94415 0.11151 0.23192 0.0
O545 O 0.92824 0.13705 0.25289 0.0
C546 C 0.94377 0.12598 0.24776 0.0
C547 C 0.91303 0.19175 0.22600 0.0
O548 O 0.94908 0.12664 0.18642 0.0
O549 O 0.93614 0.04343 0.21514 0.0
O550 O 0.93682 0.15908 0.17402 0.0
O551 O 0.97442 0.07496 0.21830 0.0
O552 O 0.93912 0.04760 0.17797 0.0
O553 O 0.97517 0.08181 0.18158 0.0
O554 O 0.89848 0.10932 0.22704 0.0
O555 O 0.91129 0.07696 0.23822 0.0
C556 C 0.86400 0.15349 0.20495 0.0
C557 C 0.90267 0.10189 0.16389 0.0
C558 C 0.05551 0.62393 0.25318 0.0
C559 C 0.08605 0.68985 0.27521 0.0
C560 C 0.13522 0.65180 0.29605 0.0
Mg561 Mg 0.05688 0.57246 0.27334 0.0
Mg562 Mg 0.05435 0.57603 0.32950 0.0
O563 O 0.06673 0.58428 0.30105 0.0
Mg564 Mg 0.07562 0.61385 0.29654 0.0
O565 O 0.08467 0.64306 0.29030 0.0
Mg566 Mg 0.09985 0.64302 0.26250 0.0
Mg567 Mg 0.09197 0.66260 0.31475 0.0
C568 C 0.09676 0.60016 0.33691 0.0
O569 O 0.05025 0.62470 0.31453 0.0
O570 O 0.06345 0.54147 0.28543 0.0
O571 O 0.06240 0.65722 0.32706 0.0
O572 O 0.02506 0.57287 0.28244 0.0
O573 O 0.06048 0.54572 0.32262 0.0
O574 O 0.02432 0.57980 0.31919 0.0
O575 O 0.10088 0.60747 0.27379 0.0
O576 O 0.08817 0.57504 0.26248 0.0
C577 C 0.10289 0.58787 0.26539 0.0
C578 C 0.06632 0.53534 0.30610 0.0
O579 O 0.09684 0.61221 0.32167 0.0
O580 O 0.09240 0.67599 0.25967 0.0
O581 O 0.08136 0.58709 0.34377 0.0
O582 O 0.12944 0.64758 0.27663 0.0
O583 O 0.08837 0.68728 0.29526 0.0
O584 O 0.12320 0.65615 0.31251 0.0
O585 O 0.05520 0.60949 0.26896 0.0
O586 O 0.07100 0.63505 0.24809 0.0
C587 C 0.01568 0.57664 0.30049 0.0
C588 C 0.04802 0.64189 0.32335 0.0
C589 C 0.44377 0.37402 0.75224 0.0
C590 C 0.41303 0.30825 0.77400 0.0
C591 C 0.36400 0.34651 0.79505 0.0
Mg592 Mg 0.44259 0.42554 0.77263 0.0
Mg593 Mg 0.44516 0.42207 0.82877 0.0
O594 O 0.43273 0.41381 0.80029 0.0
Mg595 Mg 0.42374 0.38426 0.79567 0.0
O596 O 0.41457 0.35507 0.78930 0.0
Mg597 Mg 0.39937 0.35510 0.76151 0.0
Mg598 Mg 0.40723 0.33561 0.81367 0.0
C599 C 0.40267 0.39811 0.83611 0.0
O600 O 0.44908 0.37336 0.81358 0.0
O601 O 0.43614 0.45657 0.78486 0.0
O602 O 0.43682 0.34092 0.82598 0.0
O603 O 0.47442 0.42504 0.78170 0.0
O604 O 0.43912 0.45240 0.82203 0.0
O605 O 0.47517 0.41819 0.81842 0.0
O606 O 0.39848 0.39068 0.77296 0.0
O607 O 0.41129 0.42304 0.76178 0.0
C608 C 0.39653 0.41027 0.76465 0.0
C609 C 0.43331 0.46276 0.80556 0.0
O610 O 0.40254 0.38603 0.82081 0.0
O611 O 0.40671 0.32210 0.75853 0.0
O612 O 0.41813 0.41114 0.84301 0.0
O613 O 0.36978 0.35068 0.77565 0.0
O614 O 0.41073 0.31087 0.79407 0.0
O615 O 0.37602 0.34215 0.81148 0.0
O616 O 0.44415 0.38849 0.76808 0.0
O617 O 0.42824 0.36295 0.74711 0.0
C618 C 0.48380 0.42128 0.79972 0.0
C619 C 0.45126 0.35618 0.82233 0.0
C620 C 0.66593 0.60014 0.89004 0.0
C621 C 0.70501 0.64399 0.84198 0.0
C622 C 0.72398 0.58666 0.81639 0.0
Mg623 Mg 0.67499 0.55045 0.91256 0.0
Mg624 Mg 0.72974 0.54706 0.92516 0.0
O625 O 0.70559 0.55328 0.90494 0.0
Mg626 Mg 0.70855 0.57689 0.88473 0.0
O627 O 0.70977 0.60034 0.86415 0.0
Mg628 Mg 0.68490 0.59785 0.84469 0.0
Mg629 Mg 0.73845 0.61161 0.85521 0.0
C630 C 0.74764 0.55036 0.87924 0.0
O631 O 0.72476 0.59464 0.90724 0.0
O632 O 0.68118 0.51818 0.92093 0.0
O633 O 0.74526 0.61724 0.88651 0.0
O634 O 0.67957 0.56265 0.94302 0.0
O635 O 0.71765 0.51816 0.92972 0.0
O636 O 0.71648 0.56420 0.94869 0.0
O637 O 0.68862 0.56385 0.85963 0.0
O638 O 0.66925 0.54140 0.88108 0.0
C639 C 0.67672 0.54651 0.86352 0.0
C640 C 0.70031 0.50866 0.92497 0.0
O641 O 0.73539 0.56326 0.87141 0.0
O642 O 0.68797 0.63101 0.83829 0.0
O643 O 0.74950 0.54399 0.89953 0.0
O644 O 0.70353 0.58787 0.81918 0.0
O645 O 0.72420 0.63799 0.84503 0.0
O646 O 0.73918 0.59328 0.82900 0.0
O647 O 0.67818 0.58511 0.89909 0.0
O648 O 0.66540 0.60448 0.87077 0.0
C649 C 0.69655 0.56745 0.95381 0.0
C650 C 0.73655 0.60985 0.90455 0.0
C651 C 0.17672 0.95349 0.13648 0.0
C652 C 0.20031 0.99134 0.07503 0.0
C653 C 0.19655 0.93255 0.04619 0.0
Mg654 Mg 0.18490 0.90215 0.15531 0.0
Mg655 Mg 0.23845 0.88839 0.14479 0.0
O656 O 0.20977 0.89966 0.13585 0.0
Mg657 Mg 0.20855 0.92311 0.11527 0.0
O658 O 0.20559 0.94672 0.09506 0.0
Mg659 Mg 0.17499 0.94955 0.08744 0.0
Mg660 Mg 0.22974 0.95294 0.07484 0.0
C661 C 0.23655 0.89015 0.09545 0.0
O662 O 0.23539 0.93674 0.12859 0.0
O663 O 0.18797 0.86899 0.16171 0.0
O664 O 0.24950 0.95601 0.10047 0.0
O665 O 0.20353 0.91213 0.18082 0.0
O666 O 0.22420 0.86201 0.15497 0.0
O667 O 0.23918 0.90672 0.17100 0.0
O668 O 0.17818 0.91489 0.10091 0.0
O669 O 0.16540 0.89552 0.12923 0.0
C670 C 0.16593 0.89986 0.10996 0.0
C671 C 0.20501 0.85601 0.15802 0.0
O672 O 0.22476 0.90536 0.09276 0.0
O673 O 0.18118 0.98182 0.07907 0.0
O674 O 0.24526 0.88276 0.11349 0.0
O675 O 0.17957 0.93735 0.05698 0.0
O676 O 0.21765 0.98184 0.07028 0.0
O677 O 0.21648 0.93580 0.05131 0.0
O678 O 0.18862 0.93615 0.14037 0.0
O679 O 0.16925 0.95860 0.11892 0.0
C680 C 0.22398 0.91334 0.18361 0.0
C681 C 0.24764 0.94964 0.12076 0.0
C682 C 0.25176 0.05724 0.62521 0.0
C683 C 0.27373 0.08781 0.69140 0.0
C684 C 0.29468 0.13668 0.65318 0.0
Mg685 Mg 0.27198 0.05845 0.57349 0.0
Mg686 Mg 0.32810 0.05585 0.57697 0.0
O687 O 0.29968 0.06824 0.58531 0.0
Mg688 Mg 0.29515 0.07719 0.61503 0.0
O689 O 0.28888 0.08629 0.64437 0.0
Mg690 Mg 0.26111 0.10146 0.64440 0.0
Mg691 Mg 0.31329 0.09358 0.66395 0.0
C692 C 0.33553 0.09816 0.60121 0.0
O693 O 0.31307 0.05191 0.62587 0.0
O694 O 0.28412 0.06489 0.54235 0.0
O695 O 0.32556 0.06409 0.65851 0.0
O696 O 0.28103 0.02673 0.57386 0.0
O697 O 0.32128 0.06189 0.54654 0.0
O698 O 0.31775 0.02595 0.58075 0.0
O699 O 0.27245 0.10237 0.60867 0.0
O700 O 0.26117 0.08964 0.57612 0.0
C701 C 0.26409 0.10433 0.58900 0.0
C702 C 0.30479 0.06770 0.53615 0.0
O703 O 0.32028 0.09829 0.61334 0.0
O704 O 0.25823 0.09412 0.67750 0.0
O705 O 0.34239 0.08277 0.58807 0.0
O706 O 0.27527 0.13093 0.64896 0.0
O707 O 0.29377 0.09009 0.68878 0.0
O708 O 0.31110 0.12469 0.65751 0.0
O709 O 0.26755 0.05687 0.61068 0.0
O710 O 0.24668 0.07271 0.63640 0.0
C711 C 0.29905 0.01736 0.57761 0.0
C712 C 0.32186 0.04972 0.64312 0.0
C713 C 0.75176 0.44276 0.37479 0.0
C714 C 0.77373 0.41219 0.30860 0.0
C715 C 0.79468 0.36332 0.34682 0.0
Mg716 Mg 0.77198 0.44155 0.42651 0.0
Mg717 Mg 0.82810 0.44415 0.42303 0.0
O718 O 0.79968 0.43176 0.41469 0.0
Mg719 Mg 0.79515 0.42281 0.38497 0.0
O720 O 0.78888 0.41371 0.35563 0.0
Mg721 Mg 0.76111 0.39854 0.35560 0.0
Mg722 Mg 0.81329 0.40642 0.33605 0.0
C723 C 0.83553 0.40184 0.39879 0.0
O724 O 0.81307 0.44809 0.37413 0.0
O725 O 0.78412 0.43511 0.45765 0.0
O726 O 0.82556 0.43591 0.34149 0.0
O727 O 0.78103 0.47327 0.42614 0.0
O728 O 0.82128 0.43811 0.45346 0.0
O729 O 0.81775 0.47405 0.41925 0.0
O730 O 0.77245 0.39763 0.39133 0.0
O731 O 0.76117 0.41036 0.42388 0.0
C732 C 0.76409 0.39567 0.41100 0.0
C733 C 0.80479 0.43230 0.46385 0.0
O734 O 0.82028 0.40171 0.38666 0.0
O735 O 0.75823 0.40588 0.32250 0.0
O736 O 0.84239 0.41723 0.41193 0.0
O737 O 0.77527 0.36907 0.35104 0.0
O738 O 0.79377 0.40991 0.31122 0.0
O739 O 0.81110 0.37531 0.34249 0.0
O740 O 0.76755 0.44313 0.38932 0.0
O741 O 0.74668 0.42729 0.36360 0.0
C742 C 0.79905 0.48264 0.42239 0.0
C743 C 0.82186 0.45028 0.35688 0.0
C744 C 0.07891 0.52123 0.32874 0.0
C745 C 0.07196 0.52242 0.30812 0.0
C746 C 0.08211 0.50162 0.33800 0.0
C747 C 0.09401 0.34631 0.37120 0.0
C748 C 0.10095 0.34512 0.39182 0.0
C749 C 0.09081 0.36591 0.36195 0.0
H750 H 0.06331 0.50528 0.28216 0.0
H751 H 0.06876 0.47209 0.29791 0.0
H752 H 0.10961 0.36226 0.41778 0.0
H753 H 0.10415 0.39544 0.40204 0.0
C754 C 0.06817 0.50436 0.29659 0.0
C755 C 0.07138 0.48476 0.30585 0.0
C756 C 0.10475 0.36318 0.40335 0.0
C757 C 0.10154 0.38278 0.39410 0.0
C758 C 0.07833 0.48349 0.32650 0.0
C759 C 0.08187 0.46183 0.33672 0.0
C760 C 0.08469 0.44457 0.34487 0.0
C761 C 0.09459 0.38404 0.37344 0.0
C762 C 0.09105 0.40571 0.36322 0.0
C763 C 0.08822 0.42297 0.35507 0.0
H764 H 0.08154 0.53392 0.33675 0.0
H765 H 0.08695 0.50067 0.35236 0.0
H766 H 0.09138 0.33361 0.36319 0.0
H767 H 0.08597 0.36687 0.34758 0.0
C768 C 0.41570 0.64118 0.89862 0.0
C769 C 0.40003 0.65423 0.89109 0.0
C770 C 0.41876 0.62148 0.88941 0.0
C771 C 0.41200 0.48906 0.80024 0.0
C772 C 0.42767 0.47601 0.80777 0.0
C773 C 0.40894 0.50876 0.80945 0.0
H774 H 0.37640 0.65712 0.86930 0.0
H775 H 0.38164 0.62372 0.85374 0.0
H776 H 0.45130 0.47312 0.82956 0.0
H777 H 0.44606 0.50652 0.84512 0.0
C778 C 0.38735 0.64793 0.87452 0.0
C779 C 0.39041 0.62822 0.86530 0.0
C780 C 0.44034 0.48231 0.82435 0.0
C781 C 0.43729 0.50202 0.83356 0.0
C782 C 0.40610 0.61510 0.87280 0.0
C783 C 0.40947 0.59333 0.86262 0.0
C784 C 0.41217 0.57597 0.85451 0.0
C785 C 0.42160 0.51514 0.82606 0.0
C786 C 0.41823 0.53691 0.83624 0.0
C787 C 0.41553 0.55427 0.84436 0.0
H788 H 0.42453 0.64568 0.91023 0.0
H789 H 0.42965 0.61230 0.89457 0.0
H790 H 0.40317 0.48456 0.78863 0.0
H791 H 0.39805 0.51794 0.80429 0.0
C792 C 0.56392 0.99540 0.70142 0.0
C793 C 0.57196 0.97758 0.69188 0.0
C794 C 0.56712 0.01500 0.69217 0.0
C795 C 0.60900 0.13707 0.59864 0.0
C796 C 0.60095 0.15488 0.60818 0.0
C797 C 0.60579 0.11746 0.60789 0.0
H798 H 0.58876 0.96649 0.66662 0.0
H799 H 0.59415 0.99990 0.65100 0.0
H800 H 0.58416 0.16597 0.63344 0.0
H801 H 0.57876 0.13272 0.64906 0.0
C802 C 0.58316 0.97902 0.67324 0.0
C803 C 0.58636 0.99862 0.66399 0.0
C804 C 0.58976 0.15345 0.62682 0.0
C805 C 0.58655 0.13384 0.63607 0.0
C806 C 0.57833 0.01651 0.67350 0.0
C807 C 0.58187 0.03817 0.66328 0.0
C808 C 0.58469 0.05543 0.65513 0.0
C809 C 0.59459 0.11596 0.62656 0.0
C810 C 0.59105 0.09429 0.63678 0.0
C811 C 0.58822 0.07703 0.64493 0.0
H812 H 0.55609 0.99431 0.71447 0.0
H813 H 0.56156 0.02749 0.69873 0.0
H814 H 0.61683 0.13816 0.58559 0.0
H815 H 0.61136 0.10497 0.60133 0.0
C816 C 0.91263 0.86040 0.09896 0.0
C817 C 0.90003 0.84577 0.10891 0.0
C818 C 0.91569 0.88011 0.10817 0.0
C819 C 0.91507 0.00936 0.20218 0.0
C820 C 0.92767 0.02399 0.19223 0.0
C821 C 0.91201 0.98965 0.19297 0.0
H822 H 0.88161 0.84018 0.13480 0.0
H823 H 0.88684 0.87359 0.15035 0.0
H824 H 0.94609 0.02958 0.16634 0.0
H825 H 0.94086 0.99617 0.15079 0.0
C826 C 0.89042 0.85049 0.12790 0.0
C827 C 0.89348 0.87019 0.13711 0.0
C828 C 0.93728 0.01927 0.17324 0.0
C829 C 0.93422 0.99990 0.16403 0.0
C830 C 0.90610 0.88490 0.12720 0.0
C831 C 0.90947 0.90667 0.13738 0.0
C832 C 0.91217 0.92403 0.14549 0.0
C833 C 0.92160 0.98486 0.17394 0.0
C834 C 0.91823 0.96309 0.16376 0.0
C835 C 0.91553 0.94573 0.15564 0.0
H836 H 0.91932 0.85702 0.08566 0.0
H837 H 0.92446 0.89039 0.10133 0.0
H838 H 0.90838 0.01274 0.21548 0.0
H839 H 0.90324 0.97937 0.19981 0.0
C840 C 0.32281 0.08795 0.52093 0.0
C841 C 0.30690 0.07330 0.52308 0.0
C842 C 0.33217 0.09104 0.50126 0.0
C843 C 0.37563 0.08657 0.34731 0.0
C844 C 0.39155 0.10122 0.34516 0.0
C845 C 0.36628 0.08348 0.36698 0.0
H846 H 0.28902 0.05144 0.50750 0.0
H847 H 0.30493 0.05672 0.47420 0.0
H848 H 0.40942 0.12308 0.36074 0.0
H849 H 0.39352 0.11780 0.39405 0.0
C850 C 0.30017 0.06168 0.50591 0.0
C851 C 0.30953 0.06477 0.48624 0.0
C852 C 0.39827 0.11284 0.36233 0.0
C853 C 0.38891 0.10976 0.38200 0.0
C854 C 0.32548 0.07943 0.48402 0.0
C855 C 0.33583 0.08284 0.46228 0.0
C856 C 0.34407 0.08556 0.44496 0.0
C857 C 0.37296 0.09509 0.38422 0.0
C858 C 0.36262 0.09168 0.40596 0.0
C859 C 0.35438 0.08896 0.42329 0.0
H860 H 0.32746 0.09605 0.53300 0.0
H861 H 0.34328 0.10123 0.49964 0.0
H862 H 0.37098 0.07847 0.33524 0.0
H863 H 0.35517 0.07329 0.36860 0.0
C864 C 0.17227 0.91757 0.02840 0.0
C865 C 0.19212 0.92634 0.03014 0.0
C866 C 0.16330 0.91465 0.00851 0.0
C867 C 0.13084 0.90868 0.85192 0.0
C868 C 0.11099 0.89991 0.85018 0.0
C869 C 0.13981 0.91160 0.87181 0.0
H870 H 0.21706 0.93838 0.01363 0.0
H871 H 0.20179 0.93339 0.97995 0.0
H872 H 0.08606 0.88787 0.86669 0.0
H873 H 0.10132 0.89285 0.90037 0.0
C874 C 0.20316 0.93224 0.01233 0.0
C875 C 0.19419 0.92932 0.99243 0.0
C876 C 0.09995 0.89401 0.86799 0.0
C877 C 0.10892 0.89693 0.88789 0.0
C878 C 0.17431 0.92054 0.99063 0.0
C879 C 0.16440 0.91731 0.96864 0.0
C880 C 0.15650 0.91473 0.95112 0.0
C881 C 0.12880 0.90571 0.88969 0.0
C882 C 0.13872 0.90894 0.91168 0.0
C883 C 0.14662 0.91151 0.92920 0.0
H884 H 0.16461 0.91346 0.04093 0.0
H885 H 0.14947 0.90854 0.00718 0.0
H886 H 0.13851 0.91278 0.83939 0.0
H887 H 0.15364 0.91771 0.87314 0.0
C888 C 0.79943 0.41110 0.49005 0.0
C889 C 0.80690 0.42670 0.47692 0.0
C890 C 0.80878 0.40802 0.50972 0.0
C891 C 0.89902 0.41437 0.64170 0.0
C892 C 0.89155 0.39878 0.65484 0.0
C893 C 0.88966 0.41746 0.62204 0.0
H894 H 0.82873 0.45016 0.47385 0.0
H895 H 0.84454 0.44487 0.50720 0.0
H896 H 0.86971 0.37532 0.65790 0.0
H897 H 0.85390 0.38060 0.62456 0.0
C898 C 0.82356 0.43926 0.48311 0.0
C899 C 0.83292 0.43618 0.50278 0.0
C900 C 0.87489 0.38622 0.64865 0.0
C901 C 0.86553 0.38930 0.62898 0.0
C902 C 0.82548 0.42057 0.51598 0.0
C903 C 0.83583 0.41716 0.53772 0.0
C904 C 0.84407 0.41444 0.55504 0.0
C905 C 0.87296 0.40491 0.61578 0.0
C906 C 0.86262 0.40832 0.59404 0.0
C907 C 0.85438 0.41104 0.57671 0.0
H908 H 0.78775 0.40235 0.48564 0.0
H909 H 0.80366 0.39718 0.51896 0.0
H910 H 0.91069 0.42313 0.64611 0.0
H911 H 0.89478 0.42830 0.61279 0.0
C912 C 0.67844 0.55877 0.97781 0.0
C913 C 0.69212 0.57366 0.96986 0.0
C914 C 0.66947 0.56169 0.99771 0.0
C915 C 0.62468 0.61498 0.14187 0.0
C916 C 0.61099 0.60009 0.14982 0.0
C917 C 0.63364 0.61206 0.12198 0.0
H918 H 0.70658 0.60180 0.97582 0.0
H919 H 0.69135 0.60669 0.00953 0.0
H920 H 0.59653 0.57195 0.14386 0.0
H921 H 0.61177 0.56707 0.11015 0.0
C922 C 0.69699 0.59142 0.98146 0.0
C923 C 0.68802 0.59434 0.00135 0.0
C924 C 0.60612 0.58233 0.13822 0.0
C925 C 0.61509 0.57941 0.11833 0.0
C926 C 0.67431 0.57946 0.00937 0.0
C927 C 0.66440 0.58269 0.03136 0.0
C928 C 0.65650 0.58527 0.04888 0.0
C929 C 0.62880 0.59429 0.11031 0.0
C930 C 0.63872 0.59106 0.08832 0.0
C931 C 0.64662 0.58849 0.07080 0.0
H932 H 0.67508 0.54636 0.96963 0.0
H933 H 0.65992 0.55138 0.00335 0.0
H934 H 0.62803 0.62739 0.15005 0.0
H935 H 0.64320 0.62237 0.11633 0.0
C936 C 0.35160 0.37464 0.11351 0.0
C937 C 0.34564 0.39133 0.10096 0.0
C938 C 0.37123 0.36520 0.11047 0.0
C939 C 0.51723 0.32265 0.06096 0.0
C940 C 0.52319 0.30597 0.07351 0.0
C941 C 0.49761 0.33209 0.06400 0.0
H942 H 0.35472 0.41043 0.07670 0.0
H943 H 0.38797 0.39439 0.07161 0.0
H944 H 0.51412 0.28687 0.09777 0.0
H945 H 0.48087 0.30291 0.10286 0.0
C946 C 0.35897 0.39874 0.08544 0.0
C947 C 0.37859 0.38930 0.08240 0.0
C948 C 0.50987 0.29856 0.08903 0.0
C949 C 0.49024 0.30799 0.09207 0.0
C950 C 0.38462 0.37259 0.09493 0.0
C951 C 0.40632 0.36216 0.09158 0.0
C952 C 0.42360 0.35385 0.08891 0.0
C953 C 0.48421 0.32471 0.07953 0.0
C954 C 0.46252 0.33514 0.08289 0.0
C955 C 0.44523 0.34345 0.08556 0.0
H956 H 0.34221 0.36951 0.12436 0.0
H957 H 0.37549 0.35357 0.11915 0.0
H958 H 0.52662 0.32779 0.05011 0.0
H959 H 0.49334 0.34373 0.05531 0.0
C960 C 0.01613 0.18998 0.90627 0.0
C961 C 0.02319 0.19403 0.92649 0.0
C962 C 0.99650 0.18055 0.90323 0.0
C963 C 0.85270 0.11272 0.91926 0.0
C964 C 0.84564 0.10867 0.89904 0.0
C965 C 0.87233 0.12216 0.92230 0.0
H966 H 0.01599 0.19168 0.95787 0.0
H967 H 0.98273 0.17569 0.95265 0.0
H968 H 0.85285 0.11103 0.86766 0.0
H969 H 0.88610 0.12702 0.87288 0.0
C970 C 0.01097 0.18881 0.94374 0.0
C971 C 0.99134 0.17937 0.94070 0.0
C972 C 0.85786 0.11390 0.88179 0.0
C973 C 0.87749 0.12333 0.88483 0.0
C974 C 0.98421 0.17529 0.92047 0.0
C975 C 0.96252 0.16486 0.91711 0.0
C976 C 0.94523 0.15655 0.91444 0.0
C977 C 0.88462 0.12741 0.90507 0.0
C978 C 0.90632 0.13784 0.90842 0.0
C979 C 0.92360 0.14615 0.91109 0.0
H980 H 0.02475 0.19367 0.89425 0.0
H981 H 0.99148 0.17767 0.88918 0.0
H982 H 0.84408 0.10904 0.93129 0.0
H983 H 0.87736 0.12503 0.93635 0.0
C984 C 0.63767 0.90333 0.40661 0.0
C985 C 0.65404 0.89152 0.39843 0.0
C986 C 0.61792 0.89414 0.40953 0.0
C987 C 0.49172 0.79655 0.41664 0.0
C988 C 0.47536 0.80836 0.42482 0.0
C989 C 0.51147 0.80574 0.41373 0.0
H990 H 0.66250 0.86247 0.38740 0.0
H991 H 0.62900 0.84696 0.39237 0.0
H992 H 0.46689 0.83741 0.43586 0.0
H993 H 0.50040 0.85292 0.43088 0.0
C994 C 0.65099 0.87067 0.39312 0.0
C995 C 0.63124 0.86148 0.39604 0.0
C996 C 0.47840 0.82921 0.43013 0.0
C997 C 0.49815 0.83840 0.42722 0.0
C998 C 0.61481 0.87326 0.40423 0.0
C999 C 0.59297 0.86310 0.40745 0.0
C1000 C 0.57558 0.85500 0.41002 0.0
C1001 C 0.51459 0.82662 0.41903 0.0
C1002 C 0.53642 0.83678 0.41580 0.0
C1003 C 0.55381 0.84488 0.41323 0.0
H1004 H 0.63989 0.91792 0.41031 0.0
H1005 H 0.60644 0.90228 0.41522 0.0
H1006 H 0.48950 0.78196 0.41295 0.0
H1007 H 0.52295 0.79760 0.40803 0.0
C1008 C 0.98789 0.68721 0.55790 0.0
C1009 C 0.97536 0.69164 0.57518 0.0
C1010 C 0.00764 0.67802 0.56082 0.0
C1011 C 0.14150 0.61291 0.61884 0.0
C1012 C 0.15404 0.60848 0.60157 0.0
C1013 C 0.12175 0.62210 0.61593 0.0
H1014 H 0.97340 0.69017 0.60737 0.0
H1015 H 0.00688 0.67459 0.61223 0.0
H1016 H 0.15600 0.60995 0.56938 0.0
H1017 H 0.12251 0.62553 0.56451 0.0
C1018 C 0.98223 0.68704 0.59532 0.0
C1019 C 0.00198 0.67784 0.59824 0.0
C1020 C 0.14716 0.61308 0.58142 0.0
C1021 C 0.12741 0.62228 0.57851 0.0
C1022 C 0.01459 0.67338 0.58097 0.0
C1023 C 0.03642 0.66322 0.58420 0.0
C1024 C 0.05381 0.65512 0.58677 0.0
C1025 C 0.11481 0.62674 0.59577 0.0
C1026 C 0.09297 0.63690 0.59255 0.0
C1027 C 0.07558 0.64500 0.58998 0.0
H1028 H 0.98300 0.69046 0.54383 0.0
H1029 H 0.01647 0.67488 0.54885 0.0
H1030 H 0.14639 0.60966 0.63292 0.0
H1031 H 0.11293 0.62524 0.62790 0.0
C1032 C 0.92927 0.47839 0.67147 0.0
C1033 C 0.92702 0.47597 0.69301 0.0
C1034 C 0.92604 0.49807 0.66238 0.0
C1035 C 0.89553 0.65149 0.63231 0.0
C1036 C 0.89778 0.65392 0.61078 0.0
C1037 C 0.89876 0.63182 0.64140 0.0
H1038 H 0.92004 0.49109 0.72068 0.0
H1039 H 0.91458 0.52440 0.70520 0.0
H1040 H 0.90476 0.63879 0.58310 0.0
H1041 H 0.91022 0.60549 0.59858 0.0
C1042 C 0.92160 0.49287 0.70561 0.0
C1043 C 0.91837 0.51254 0.69652 0.0
C1044 C 0.90320 0.63701 0.59818 0.0
C1045 C 0.90643 0.61734 0.60727 0.0
C1046 C 0.92060 0.51504 0.67495 0.0
C1047 C 0.91703 0.53678 0.66491 0.0
C1048 C 0.91418 0.55411 0.65690 0.0
C1049 C 0.90420 0.61485 0.62883 0.0
C1050 C 0.90777 0.59311 0.63888 0.0
C1051 C 0.91062 0.57578 0.64688 0.0
H1052 H 0.93307 0.46651 0.66272 0.0
H1053 H 0.92758 0.49988 0.64738 0.0
H1054 H 0.89173 0.66338 0.64107 0.0
H1055 H 0.89722 0.63001 0.65640 0.0
C1056 C 0.56655 0.51943 0.17072 0.0
C1057 C 0.57389 0.52341 0.19086 0.0
C1058 C 0.56948 0.49962 0.16171 0.0
C1059 C 0.60775 0.34817 0.12948 0.0
C1060 C 0.60040 0.34419 0.10934 0.0
C1061 C 0.60481 0.36798 0.13849 0.0
H1062 H 0.58923 0.51079 0.21624 0.0
H1063 H 0.59416 0.47723 0.20090 0.0
H1064 H 0.58507 0.35681 0.08395 0.0
H1065 H 0.58014 0.39036 0.09929 0.0
C1066 C 0.58411 0.50792 0.20214 0.0
C1067 C 0.58704 0.48811 0.19313 0.0
C1068 C 0.59018 0.35967 0.09805 0.0
C1069 C 0.58725 0.37949 0.10706 0.0
C1070 C 0.57971 0.48406 0.17296 0.0
C1071 C 0.58295 0.46216 0.16300 0.0
C1072 C 0.58553 0.44471 0.15506 0.0
C1073 C 0.59458 0.38354 0.12724 0.0
C1074 C 0.59134 0.40543 0.13720 0.0
C1075 C 0.58876 0.42288 0.14513 0.0
H1076 H 0.55940 0.53033 0.16288 0.0
H1077 H 0.56441 0.49673 0.14767 0.0
H1078 H 0.61489 0.33727 0.13731 0.0
H1079 H 0.60989 0.37087 0.15252 0.0
C1080 C 0.42841 0.02179 0.32862 0.0
C1081 C 0.42702 0.02403 0.30699 0.0
C1082 C 0.42518 0.00212 0.33771 0.0
C1083 C 0.39639 0.84833 0.36760 0.0
C1084 C 0.39778 0.84608 0.38922 0.0
C1085 C 0.39962 0.86800 0.35851 0.0
H1086 H 0.42150 0.00860 0.27916 0.0
H1087 H 0.41603 0.97529 0.29464 0.0
H1088 H 0.40330 0.86152 0.41705 0.0
H1089 H 0.40877 0.89482 0.40158 0.0
C1090 C 0.42246 0.00695 0.29430 0.0
C1091 C 0.41922 0.98727 0.30339 0.0
C1092 C 0.40234 0.86317 0.40192 0.0
C1093 C 0.40558 0.88284 0.39283 0.0
C1094 C 0.42060 0.98496 0.32505 0.0
C1095 C 0.41703 0.96322 0.33509 0.0
C1096 C 0.41418 0.94589 0.34310 0.0
C1097 C 0.40420 0.88515 0.37117 0.0
C1098 C 0.40777 0.90689 0.36112 0.0
C1099 C 0.41062 0.92422 0.35312 0.0
H1100 H 0.43162 0.03380 0.33744 0.0
H1101 H 0.42612 0.00010 0.35278 0.0
H1102 H 0.39318 0.83631 0.35878 0.0
H1103 H 0.39868 0.86968 0.34344 0.0
C1104 C 0.11335 0.13937 0.89648 0.0
C1105 C 0.10040 0.15581 0.89066 0.0
C1106 C 0.11042 0.11956 0.88747 0.0
C1107 C 0.06095 0.99303 0.80332 0.0
C1108 C 0.07389 0.97659 0.80914 0.0
C1109 C 0.06388 0.01285 0.81233 0.0
H1110 H 0.07556 0.16436 0.87196 0.0
H1111 H 0.07065 0.13075 0.85673 0.0
H1112 H 0.09874 0.96805 0.82784 0.0
H1113 H 0.10365 0.00165 0.84307 0.0
C1114 C 0.08458 0.15279 0.87599 0.0
C1115 C 0.08165 0.13298 0.86697 0.0
C1116 C 0.08972 0.97961 0.82382 0.0
C1117 C 0.09265 0.99990 0.83283 0.0
C1118 C 0.09458 0.11646 0.87276 0.0
C1119 C 0.09134 0.09457 0.86280 0.0
C1120 C 0.08876 0.07712 0.85487 0.0
C1121 C 0.07971 0.01594 0.82704 0.0
C1122 C 0.08295 0.03784 0.83700 0.0
C1123 C 0.08553 0.05529 0.84494 0.0
H1124 H 0.12441 0.14157 0.90677 0.0
H1125 H 0.11938 0.10802 0.89145 0.0
H1126 H 0.04989 0.99084 0.79304 0.0
H1127 H 0.05491 0.02439 0.80835 0.0
C1128 C 0.69499 0.94211 0.49142 0.0
C1129 C 0.69217 0.92728 0.47571 0.0
C1130 C 0.68562 0.93917 0.51111 0.0
C1131 C 0.60464 0.88581 0.63809 0.0
C1132 C 0.60746 0.90063 0.65380 0.0
C1133 C 0.61401 0.88875 0.61841 0.0
H1134 H 0.67823 0.89922 0.46829 0.0
H1135 H 0.66239 0.89430 0.50168 0.0
H1136 H 0.62140 0.92869 0.66123 0.0
H1137 H 0.63724 0.93362 0.62784 0.0
C1138 C 0.68015 0.90956 0.47935 0.0
C1139 C 0.67079 0.90661 0.49903 0.0
C1140 C 0.61948 0.91836 0.65017 0.0
C1141 C 0.62884 0.92130 0.63048 0.0
C1142 C 0.67357 0.92143 0.51481 0.0
C1143 C 0.66322 0.91818 0.53657 0.0
C1144 C 0.65497 0.91558 0.55391 0.0
C1145 C 0.62606 0.90648 0.61470 0.0
C1146 C 0.63641 0.90974 0.59294 0.0
C1147 C 0.64466 0.91234 0.57560 0.0
H1148 H 0.70342 0.95450 0.48880 0.0
H1149 H 0.68752 0.94944 0.52214 0.0
H1150 H 0.59621 0.87342 0.64072 0.0
H1151 H 0.61211 0.87848 0.60738 0.0
C1152 C 0.88048 0.11705 0.14534 0.0
C1153 C 0.89193 0.10102 0.15448 0.0
C1154 C 0.87116 0.11398 0.12563 0.0
C1155 C 0.81908 0.05718 0.98532 0.0
C1156 C 0.80763 0.07321 0.97619 0.0
C1157 C 0.82840 0.06025 0.00503 0.0
H1158 H 0.90225 0.07078 0.15071 0.0
H1159 H 0.88643 0.06564 0.11731 0.0
H1160 H 0.79730 0.10345 0.97996 0.0
H1161 H 0.81313 0.10859 0.01336 0.0
C1162 C 0.89422 0.08196 0.14424 0.0
C1163 C 0.88490 0.07888 0.12453 0.0
C1164 C 0.80534 0.09227 0.98642 0.0
C1165 C 0.81466 0.09535 0.00613 0.0
C1166 C 0.87342 0.09491 0.11533 0.0
C1167 C 0.86312 0.09151 0.09355 0.0
C1168 C 0.85491 0.08881 0.07619 0.0
C1169 C 0.82614 0.07932 0.01533 0.0
C1170 C 0.83644 0.08272 0.03712 0.0
C1171 C 0.84465 0.08542 0.05447 0.0
H1172 H 0.87892 0.13037 0.15257 0.0
H1173 H 0.86316 0.12509 0.11917 0.0
H1174 H 0.82063 0.04386 0.97809 0.0
H1175 H 0.83640 0.04914 0.01149 0.0
C1176 C 0.18687 0.55550 0.51207 0.0
C1177 C 0.19217 0.57272 0.52429 0.0
C1178 C 0.17750 0.55844 0.49239 0.0
C1179 C 0.11276 0.61659 0.35841 0.0
C1180 C 0.10746 0.59937 0.34620 0.0
C1181 C 0.12213 0.61364 0.37810 0.0
H1182 H 0.19202 0.60484 0.52577 0.0
H1183 H 0.17615 0.60975 0.49239 0.0
H1184 H 0.10761 0.56725 0.34471 0.0
H1185 H 0.12348 0.56233 0.37809 0.0
C1186 C 0.18828 0.59283 0.51716 0.0
C1187 C 0.17891 0.59578 0.49747 0.0
C1188 C 0.11136 0.57925 0.35332 0.0
C1189 C 0.12072 0.57631 0.37301 0.0
C1190 C 0.17357 0.57857 0.48519 0.0
C1191 C 0.16322 0.58182 0.46343 0.0
C1192 C 0.15497 0.58442 0.44609 0.0
C1193 C 0.12606 0.59352 0.38530 0.0
C1194 C 0.13641 0.59026 0.40706 0.0
C1195 C 0.14466 0.58766 0.42440 0.0
H1196 H 0.18963 0.54144 0.51714 0.0
H1197 H 0.17376 0.54651 0.48378 0.0
H1198 H 0.11000 0.63064 0.35334 0.0
H1199 H 0.12587 0.62557 0.38670 0.0
C1200 C 0.32380 0.41240 0.02160 0.0
C1201 C 0.30763 0.42679 0.02381 0.0
C1202 C 0.33312 0.40933 0.00189 0.0
C1203 C 0.37576 0.41337 0.84773 0.0
C1204 C 0.39193 0.39898 0.84552 0.0
C1205 C 0.36644 0.41644 0.86744 0.0
H1206 H 0.28929 0.44820 0.00829 0.0
H1207 H 0.30513 0.44294 0.97492 0.0
H1208 H 0.41027 0.37757 0.86105 0.0
H1209 H 0.39443 0.38283 0.89442 0.0
C1210 C 0.30062 0.43815 0.00666 0.0
C1211 C 0.30994 0.43508 0.98695 0.0
C1212 C 0.39894 0.38762 0.86268 0.0
C1213 C 0.38962 0.39069 0.88239 0.0
C1214 C 0.32614 0.42068 0.98467 0.0
C1215 C 0.33644 0.41728 0.96288 0.0
C1216 C 0.34465 0.41458 0.94553 0.0
C1217 C 0.37342 0.40509 0.88467 0.0
C1218 C 0.36312 0.40849 0.90645 0.0
C1219 C 0.35491 0.41119 0.92381 0.0
H1220 H 0.32865 0.40449 0.03367 0.0
H1221 H 0.34440 0.39933 0.00010 0.0
H1222 H 0.37091 0.42128 0.83567 0.0
H1223 H 0.35516 0.42644 0.86910 0.0
C1224 C 0.64253 0.61017 0.88156 0.0
C1225 C 0.65614 0.60783 0.89840 0.0
C1226 C 0.62285 0.61947 0.88467 0.0
C1227 C 0.49171 0.68963 0.94342 0.0
C1228 C 0.47811 0.69196 0.92657 0.0
C1229 C 0.51139 0.68033 0.94031 0.0
H1230 H 0.65999 0.61297 0.93006 0.0
H1231 H 0.62662 0.62872 0.93526 0.0
H1232 H 0.47425 0.68683 0.89492 0.0
H1233 H 0.50762 0.67108 0.88971 0.0
C1234 C 0.65041 0.61464 0.91831 0.0
C1235 C 0.63073 0.62394 0.92143 0.0
C1236 C 0.48383 0.68516 0.90666 0.0
C1237 C 0.50352 0.67586 0.90355 0.0
C1238 C 0.61705 0.62630 0.90459 0.0
C1239 C 0.59530 0.63658 0.90803 0.0
C1240 C 0.57796 0.64478 0.91077 0.0
C1241 C 0.51719 0.67349 0.92039 0.0
C1242 C 0.53895 0.66321 0.91695 0.0
C1243 C 0.55628 0.65502 0.91420 0.0
H1244 H 0.64662 0.60538 0.86765 0.0
H1245 H 0.61328 0.62115 0.87300 0.0
H1246 H 0.48763 0.69442 0.95733 0.0
H1247 H 0.52096 0.67865 0.95198 0.0
C1248 C 0.99057 0.80173 0.09012 0.0
C1249 C 0.97811 0.80804 0.07343 0.0
C1250 C 0.01025 0.81103 0.09323 0.0
C1251 C 0.14367 0.89847 0.08490 0.0
C1252 C 0.15614 0.89217 0.10160 0.0
C1253 C 0.12399 0.88917 0.08179 0.0
H1254 H 0.97618 0.82784 0.04813 0.0
H1255 H 0.00955 0.84356 0.05347 0.0
H1256 H 0.15806 0.87236 0.12689 0.0
H1257 H 0.12469 0.85664 0.12155 0.0
C1258 C 0.98497 0.82348 0.05980 0.0
C1259 C 0.00466 0.83278 0.06291 0.0
C1260 C 0.14927 0.87672 0.11523 0.0
C1261 C 0.12959 0.86742 0.11211 0.0
C1262 C 0.01719 0.82651 0.07961 0.0
C1263 C 0.03895 0.83679 0.08305 0.0
C1264 C 0.05628 0.84498 0.08580 0.0
C1265 C 0.11705 0.87370 0.09541 0.0
C1266 C 0.09530 0.86342 0.09197 0.0
C1267 C 0.07796 0.85522 0.08923 0.0
H1268 H 0.98569 0.79090 0.09962 0.0
H1269 H 0.01903 0.80671 0.10484 0.0
H1270 H 0.14855 0.90930 0.07540 0.0
H1271 H 0.11521 0.89349 0.07019 0.0
C1272 C 0.35866 0.11173 0.61729 0.0
C1273 C 0.34524 0.10899 0.60033 0.0
C1274 C 0.37837 0.12097 0.61423 0.0
C1275 C 0.51011 0.18984 0.55574 0.0
C1276 C 0.52353 0.19258 0.57269 0.0
C1277 C 0.49040 0.18060 0.55879 0.0
H1278 H 0.34173 0.11337 0.56856 0.0
H1279 H 0.37515 0.12903 0.56345 0.0
H1280 H 0.52704 0.18819 0.60447 0.0
H1281 H 0.49362 0.17254 0.60957 0.0
C1282 C 0.35118 0.11533 0.58038 0.0
C1283 C 0.37089 0.12457 0.57732 0.0
C1284 C 0.51758 0.18624 0.59265 0.0
C1285 C 0.49787 0.17700 0.59571 0.0
C1286 C 0.38438 0.12734 0.59427 0.0
C1287 C 0.40617 0.13755 0.59089 0.0
C1288 C 0.42353 0.14569 0.58820 0.0
C1289 C 0.48438 0.17422 0.57876 0.0
C1290 C 0.46260 0.16401 0.58214 0.0
C1291 C 0.44524 0.15587 0.58483 0.0
H1292 H 0.35442 0.10726 0.63123 0.0
H1293 H 0.38781 0.12293 0.62598 0.0
H1294 H 0.51434 0.19430 0.54179 0.0
H1295 H 0.48096 0.17864 0.54705 0.0
C1296 C 0.85443 0.37960 0.38353 0.0
C1297 C 0.84524 0.39101 0.39967 0.0
C1298 C 0.87414 0.37036 0.38659 0.0
C1299 C 0.01434 0.31884 0.44344 0.0
C1300 C 0.02353 0.30742 0.42731 0.0
C1301 C 0.99463 0.32808 0.44039 0.0
H1302 H 0.84891 0.40136 0.43005 0.0
H1303 H 0.88231 0.38567 0.43515 0.0
H1304 H 0.01985 0.29708 0.39693 0.0
H1305 H 0.98645 0.31277 0.39182 0.0
C1306 C 0.85542 0.39335 0.41880 0.0
C1307 C 0.87512 0.38411 0.42186 0.0
C1308 C 0.01335 0.30509 0.40817 0.0
C1309 C 0.99364 0.31433 0.40512 0.0
C1310 C 0.88438 0.37266 0.40573 0.0
C1311 C 0.90617 0.36245 0.40911 0.0
C1312 C 0.92353 0.35431 0.41180 0.0
C1313 C 0.98438 0.32578 0.42124 0.0
C1314 C 0.96260 0.33599 0.41786 0.0
C1315 C 0.94524 0.34413 0.41517 0.0
H1316 H 0.84724 0.37801 0.37016 0.0
H1317 H 0.88064 0.36237 0.37541 0.0
H1318 H 0.02153 0.32043 0.45681 0.0
H1319 H 0.98812 0.33606 0.45156 0.0
C1320 C 0.27375 0.39996 0.22658 0.0
C1321 C 0.26319 0.41082 0.21099 0.0
C1322 C 0.26238 0.38815 0.24119 0.0
C1323 C 0.14977 0.31482 0.32747 0.0
C1324 C 0.16033 0.30396 0.34307 0.0
C1325 C 0.16114 0.32663 0.31287 0.0
H1326 H 0.23414 0.41770 0.19878 0.0
H1327 H 0.21493 0.39766 0.22356 0.0
H1328 H 0.18938 0.29708 0.35528 0.0
H1329 H 0.20859 0.31712 0.33050 0.0
C1330 C 0.24146 0.41007 0.20973 0.0
C1331 C 0.23009 0.39826 0.22434 0.0
C1332 C 0.18206 0.30471 0.34433 0.0
C1333 C 0.19343 0.31652 0.32972 0.0
C1334 C 0.24061 0.38736 0.23999 0.0
C1335 C 0.22804 0.37430 0.25612 0.0
C1336 C 0.21802 0.36390 0.26899 0.0
C1337 C 0.18291 0.32742 0.31407 0.0
C1338 C 0.19548 0.34048 0.29793 0.0
C1339 C 0.20549 0.35088 0.28507 0.0
H1340 H 0.28897 0.40053 0.22739 0.0
H1341 H 0.26963 0.38053 0.25211 0.0
H1342 H 0.13455 0.31425 0.32667 0.0
H1343 H 0.15388 0.33425 0.30195 0.0
C1344 C 0.33674 0.70405 0.82336 0.0
C1345 C 0.34075 0.69592 0.84314 0.0
C1346 C 0.32528 0.69224 0.80874 0.0
C1347 C 0.24116 0.58099 0.73067 0.0
C1348 C 0.23715 0.58912 0.71089 0.0
C1349 C 0.25262 0.59279 0.74529 0.0
H1350 H 0.33637 0.67056 0.86242 0.0
H1351 H 0.31697 0.65061 0.83759 0.0
H1352 H 0.24153 0.61447 0.69161 0.0
H1353 H 0.26093 0.63442 0.71644 0.0
C1354 C 0.33352 0.67619 0.84855 0.0
C1355 C 0.32206 0.66438 0.83393 0.0
C1356 C 0.24438 0.60885 0.70548 0.0
C1357 C 0.25584 0.62066 0.72010 0.0
C1358 C 0.31801 0.67247 0.81411 0.0
C1359 C 0.30535 0.65942 0.79795 0.0
C1360 C 0.29526 0.64902 0.78507 0.0
C1361 C 0.25989 0.61257 0.73992 0.0
C1362 C 0.27255 0.62562 0.75608 0.0
C1363 C 0.28264 0.63601 0.76896 0.0
H1364 H 0.34184 0.71787 0.81965 0.0
H1365 H 0.32242 0.69781 0.79493 0.0
H1366 H 0.23606 0.56716 0.73438 0.0
H1367 H 0.25548 0.58723 0.75910 0.0
C1368 C 0.66089 0.17441 0.65508 0.0
C1369 C 0.66033 0.19604 0.65693 0.0
C1370 C 0.67226 0.16260 0.66969 0.0
C1371 C 0.76263 0.11081 0.79086 0.0
C1372 C 0.76319 0.08918 0.78901 0.0
C1373 C 0.75126 0.12262 0.77626 0.0
H1374 H 0.67050 0.22120 0.67434 0.0
H1375 H 0.68975 0.20112 0.69905 0.0
H1376 H 0.75302 0.06402 0.77160 0.0
H1377 H 0.73377 0.08410 0.74689 0.0
C1378 C 0.67094 0.20606 0.67312 0.0
C1379 C 0.68231 0.19424 0.68772 0.0
C1380 C 0.75258 0.07916 0.77283 0.0
C1381 C 0.74121 0.09098 0.75822 0.0
C1382 C 0.68291 0.17258 0.68593 0.0
C1383 C 0.69548 0.15952 0.70207 0.0
C1384 C 0.70549 0.14912 0.71493 0.0
C1385 C 0.74061 0.11264 0.76001 0.0
C1386 C 0.72804 0.12570 0.74388 0.0
C1387 C 0.71802 0.13610 0.73101 0.0
H1388 H 0.65343 0.16748 0.64372 0.0
H1389 H 0.67272 0.14752 0.66850 0.0
H1390 H 0.77009 0.11774 0.80222 0.0
H1391 H 0.75080 0.13770 0.77744 0.0
C1392 C 0.83245 0.82327 0.15104 0.0
C1393 C 0.84075 0.80408 0.15686 0.0
C1394 C 0.82099 0.83508 0.16566 0.0
C1395 C 0.74545 0.89169 0.29493 0.0
C1396 C 0.73715 0.91088 0.28911 0.0
C1397 C 0.75691 0.87988 0.28031 0.0
H1398 H 0.84366 0.78305 0.18103 0.0
H1399 H 0.82424 0.80311 0.20576 0.0
H1400 H 0.73424 0.93192 0.26494 0.0
H1401 H 0.75366 0.91185 0.24021 0.0
C1402 C 0.83781 0.79649 0.17704 0.0
C1403 C 0.82635 0.80830 0.19166 0.0
C1404 C 0.74009 0.91847 0.26893 0.0
C1405 C 0.75155 0.90666 0.25431 0.0
C1406 C 0.81801 0.82753 0.18589 0.0
C1407 C 0.80535 0.84058 0.20205 0.0
C1408 C 0.79526 0.85098 0.21493 0.0
C1409 C 0.75989 0.88743 0.26008 0.0
C1410 C 0.77255 0.87438 0.24392 0.0
C1411 C 0.78264 0.86399 0.23104 0.0
H1412 H 0.83455 0.82852 0.13689 0.0
H1413 H 0.81515 0.84847 0.16172 0.0
H1414 H 0.74335 0.88645 0.30908 0.0
H1415 H 0.76275 0.86649 0.28425 0.0
C1416 C 0.33812 0.15381 0.32391 0.0
C1417 C 0.34318 0.16030 0.30376 0.0
C1418 C 0.32349 0.16519 0.33576 0.0
C1419 C 0.21587 0.26970 0.39085 0.0
C1420 C 0.21081 0.26320 0.41100 0.0
C1421 C 0.23051 0.25832 0.37899 0.0
H1422 H 0.33746 0.18245 0.28114 0.0
H1423 H 0.31267 0.20168 0.30129 0.0
H1424 H 0.21654 0.24106 0.43362 0.0
H1425 H 0.24133 0.22183 0.41347 0.0
C1426 C 0.33386 0.17797 0.29525 0.0
C1427 C 0.31923 0.18935 0.30711 0.0
C1428 C 0.22013 0.24554 0.41950 0.0
C1429 C 0.23477 0.23416 0.40765 0.0
C1430 C 0.31412 0.18290 0.32730 0.0
C1431 C 0.29795 0.19547 0.34041 0.0
C1432 C 0.28506 0.20549 0.35085 0.0
C1433 C 0.23988 0.24061 0.38745 0.0
C1434 C 0.25605 0.22804 0.37435 0.0
C1435 C 0.26894 0.21802 0.36391 0.0
H1436 H 0.34469 0.14143 0.32979 0.0
H1437 H 0.31989 0.16076 0.34982 0.0
H1438 H 0.20930 0.28208 0.38497 0.0
H1439 H 0.23411 0.26275 0.36493 0.0
C1440 C 0.17672 0.83410 0.79608 0.0
C1441 C 0.15795 0.84025 0.80529 0.0
C1442 C 0.19135 0.82265 0.80778 0.0
C1443 C 0.27156 0.74276 0.92034 0.0
C1444 C 0.29032 0.73661 0.91113 0.0
C1445 C 0.25692 0.75422 0.90864 0.0
H1446 H 0.14041 0.83948 0.83237 0.0
H1447 H 0.16525 0.82006 0.85214 0.0
H1448 H 0.30787 0.73738 0.88405 0.0
H1449 H 0.28302 0.75680 0.86428 0.0
C1450 C 0.15357 0.83514 0.82599 0.0
C1451 C 0.16820 0.82368 0.83770 0.0
C1452 C 0.29471 0.74172 0.89043 0.0
C1453 C 0.28007 0.75318 0.87873 0.0
C1454 C 0.18702 0.81750 0.82853 0.0
C1455 C 0.20319 0.80483 0.84146 0.0
C1456 C 0.21608 0.79474 0.85177 0.0
C1457 C 0.26126 0.75937 0.88790 0.0
C1458 C 0.24508 0.77203 0.87496 0.0
C1459 C 0.23220 0.78212 0.86466 0.0
H1460 H 0.17971 0.83772 0.78157 0.0
H1461 H 0.20447 0.81831 0.80147 0.0
H1462 H 0.26856 0.73914 0.93485 0.0
H1463 H 0.24381 0.75856 0.91496 0.0
C1464 C 0.73203 0.23526 0.58432 0.0
C1465 C 0.71081 0.23680 0.58900 0.0
C1466 C 0.74667 0.24664 0.59618 0.0
C1467 C 0.82196 0.34123 0.70092 0.0
C1468 C 0.84318 0.33970 0.69624 0.0
C1469 C 0.80733 0.32986 0.68906 0.0
H1470 H 0.68909 0.25053 0.60854 0.0
H1471 H 0.71395 0.26978 0.62859 0.0
H1472 H 0.86490 0.32596 0.67671 0.0
H1473 H 0.84004 0.30671 0.65666 0.0
C1474 C 0.70397 0.24951 0.60533 0.0
C1475 C 0.71860 0.26088 0.61718 0.0
C1476 C 0.85003 0.32698 0.67992 0.0
C1477 C 0.83539 0.31561 0.66806 0.0
C1478 C 0.73988 0.25939 0.61255 0.0
C1479 C 0.75605 0.27196 0.62565 0.0
C1480 C 0.76894 0.28198 0.63609 0.0
C1481 C 0.81412 0.31710 0.67270 0.0
C1482 C 0.79795 0.30453 0.65959 0.0
C1483 C 0.78506 0.29451 0.64915 0.0
H1484 H 0.73674 0.22634 0.57288 0.0
H1485 H 0.76149 0.24564 0.59301 0.0
H1486 H 0.81725 0.35016 0.71237 0.0
H1487 H 0.79251 0.33085 0.69223 0.0
C1488 C 0.65424 0.68071 0.19050 0.0
C1489 C 0.65795 0.65975 0.19471 0.0
C1490 C 0.66887 0.69216 0.17880 0.0
C1491 C 0.79403 0.74243 0.09308 0.0
C1492 C 0.79032 0.76339 0.08887 0.0
C1493 C 0.77940 0.73098 0.10478 0.0
H1494 H 0.67857 0.63537 0.19043 0.0
H1495 H 0.70332 0.65485 0.17060 0.0
H1496 H 0.76970 0.78776 0.09315 0.0
H1497 H 0.74495 0.76829 0.11298 0.0
C1498 C 0.67604 0.65005 0.18743 0.0
C1499 C 0.69068 0.66151 0.17573 0.0
C1500 C 0.77223 0.77309 0.09615 0.0
C1501 C 0.75760 0.76163 0.10785 0.0
C1502 C 0.68702 0.68250 0.17147 0.0
C1503 C 0.70319 0.69517 0.15854 0.0
C1504 C 0.71608 0.70526 0.14823 0.0
C1505 C 0.76126 0.74063 0.11210 0.0
C1506 C 0.74508 0.72797 0.12504 0.0
C1507 C 0.73220 0.71788 0.13534 0.0
H1508 H 0.64155 0.68742 0.19563 0.0
H1509 H 0.66639 0.70678 0.17579 0.0
H1510 H 0.80672 0.73572 0.08795 0.0
H1511 H 0.78188 0.71636 0.10778 0.0
C1512 C 0.40146 0.22730 0.27329 0.0
C1513 C 0.41097 0.21075 0.26284 0.0
C1514 C 0.38965 0.24192 0.26196 0.0
C1515 C 0.31372 0.32644 0.14985 0.0
C1516 C 0.30421 0.34299 0.16031 0.0
C1517 C 0.32553 0.31182 0.16119 0.0
H1518 H 0.41558 0.19694 0.23400 0.0
H1519 H 0.39556 0.22176 0.21486 0.0
H1520 H 0.29960 0.35680 0.18914 0.0
H1521 H 0.31962 0.33198 0.20829 0.0
C1522 C 0.40889 0.20856 0.24125 0.0
C1523 C 0.39708 0.22318 0.22991 0.0
C1524 C 0.30629 0.34518 0.18190 0.0
C1525 C 0.31810 0.33056 0.19323 0.0
C1526 C 0.38753 0.23978 0.24033 0.0
C1527 C 0.37449 0.25594 0.22780 0.0
C1528 C 0.36409 0.26882 0.21782 0.0
C1529 C 0.32765 0.31396 0.18282 0.0
C1530 C 0.34069 0.29780 0.19535 0.0
C1531 C 0.35109 0.28492 0.20533 0.0
H1532 H 0.40296 0.22876 0.28841 0.0
H1533 H 0.38298 0.25350 0.26914 0.0
H1534 H 0.31222 0.32498 0.13473 0.0
H1535 H 0.33220 0.30024 0.15401 0.0
C1536 C 0.80229 0.17816 0.84425 0.0
C1537 C 0.80421 0.15701 0.83969 0.0
C1538 C 0.81409 0.19278 0.83292 0.0
C1539 C 0.91289 0.26810 0.73260 0.0
C1540 C 0.91097 0.28925 0.73716 0.0
C1541 C 0.90109 0.25348 0.74394 0.0
H1542 H 0.81901 0.13539 0.82086 0.0
H1543 H 0.83898 0.16023 0.80170 0.0
H1544 H 0.89616 0.31087 0.75599 0.0
H1545 H 0.87619 0.28603 0.77516 0.0
C1546 C 0.81773 0.15022 0.82400 0.0
C1547 C 0.82953 0.16484 0.81266 0.0
C1548 C 0.89745 0.29604 0.75286 0.0
C1549 C 0.88565 0.28142 0.76419 0.0
C1550 C 0.82765 0.18604 0.81718 0.0
C1551 C 0.84069 0.20220 0.80465 0.0
C1552 C 0.85109 0.21508 0.79467 0.0
C1553 C 0.88753 0.26022 0.75967 0.0
C1554 C 0.87449 0.24406 0.77220 0.0
C1555 C 0.86409 0.23118 0.78218 0.0
H1556 H 0.79280 0.18283 0.85526 0.0
H1557 H 0.81284 0.20755 0.83601 0.0
H1558 H 0.92238 0.26343 0.72160 0.0
H1559 H 0.90234 0.23871 0.74085 0.0
C1560 C 0.61182 0.70855 0.23642 0.0
C1561 C 0.59013 0.71038 0.23547 0.0
C1562 C 0.62353 0.72322 0.24788 0.0
C1563 C 0.67438 0.84491 0.33818 0.0
C1564 C 0.69606 0.84308 0.33913 0.0
C1565 C 0.66267 0.83024 0.32672 0.0
H1566 H 0.56477 0.72784 0.24506 0.0
H1567 H 0.58468 0.75267 0.26446 0.0
H1568 H 0.72142 0.82562 0.32954 0.0
H1569 H 0.70151 0.80080 0.31014 0.0
C1570 C 0.57995 0.72663 0.24578 0.0
C1571 C 0.59166 0.74130 0.25724 0.0
C1572 C 0.70624 0.82683 0.32883 0.0
C1573 C 0.69453 0.81216 0.31737 0.0
C1574 C 0.61339 0.73952 0.25823 0.0
C1575 C 0.62633 0.75573 0.27090 0.0
C1576 C 0.63665 0.76865 0.28099 0.0
C1577 C 0.67280 0.81395 0.31637 0.0
C1578 C 0.65986 0.79773 0.30371 0.0
C1579 C 0.64955 0.78481 0.29361 0.0
H1580 H 0.61887 0.69714 0.22918 0.0
H1581 H 0.63865 0.72204 0.24862 0.0
H1582 H 0.66733 0.85632 0.34542 0.0
H1583 H 0.64754 0.83142 0.32598 0.0
C1584 C 0.08884 0.76856 0.76958 0.0
C1585 C 0.09013 0.78962 0.76453 0.0
C1586 C 0.10055 0.75389 0.75812 0.0
C1587 C 0.19735 0.67798 0.65582 0.0
C1588 C 0.19606 0.65692 0.66087 0.0
C1589 C 0.18564 0.69265 0.66728 0.0
H1590 H 0.10378 0.81103 0.74475 0.0
H1591 H 0.12359 0.78611 0.72537 0.0
H1592 H 0.18242 0.63551 0.68064 0.0
H1593 H 0.16260 0.66043 0.70002 0.0
C1594 C 0.10293 0.79626 0.74822 0.0
C1595 C 0.11464 0.78159 0.73676 0.0
C1596 C 0.18326 0.65027 0.67717 0.0
C1597 C 0.17155 0.66494 0.68863 0.0
C1598 C 0.11339 0.76048 0.74177 0.0
C1599 C 0.12633 0.74427 0.72910 0.0
C1600 C 0.13665 0.73135 0.71901 0.0
C1601 C 0.17280 0.68605 0.68363 0.0
C1602 C 0.15986 0.70227 0.69629 0.0
C1603 C 0.14955 0.71519 0.70639 0.0
H1604 H 0.07986 0.76399 0.78101 0.0
H1605 H 0.09973 0.73918 0.76154 0.0
H1606 H 0.20633 0.68255 0.64439 0.0
H1607 H 0.18646 0.70735 0.66385 0.0
C1608 C 0.73702 0.58220 0.77497 0.0
C1609 C 0.73537 0.58949 0.79546 0.0
C1610 C 0.74828 0.59380 0.76012 0.0
C1611 C 0.83563 0.70169 0.68155 0.0
C1612 C 0.83727 0.69440 0.66107 0.0
C1613 C 0.82437 0.69009 0.69641 0.0
H1614 H 0.74360 0.61321 0.81571 0.0
H1615 H 0.76268 0.63281 0.79048 0.0
H1616 H 0.82904 0.67068 0.64081 0.0
H1617 H 0.80997 0.65107 0.66604 0.0
C1618 C 0.74480 0.60817 0.80135 0.0
C1619 C 0.75606 0.61977 0.78649 0.0
C1620 C 0.82785 0.67571 0.65518 0.0
C1621 C 0.81658 0.66411 0.67003 0.0
C1622 C 0.75775 0.61252 0.76595 0.0
C1623 C 0.77020 0.62534 0.74953 0.0
C1624 C 0.78012 0.63555 0.73645 0.0
C1625 C 0.81490 0.67136 0.69057 0.0
C1626 C 0.80245 0.65855 0.70699 0.0
C1627 C 0.79253 0.64833 0.72008 0.0
H1628 H 0.73039 0.56910 0.77093 0.0
H1629 H 0.74949 0.58881 0.74580 0.0
H1630 H 0.84226 0.71478 0.68560 0.0
H1631 H 0.82315 0.69507 0.71072 0.0
C1632 C 0.64976 0.31008 0.17560 0.0
C1633 C 0.65964 0.30258 0.15767 0.0
C1634 C 0.66115 0.32197 0.19021 0.0
C1635 C 0.77252 0.40268 0.27182 0.0
C1636 C 0.76264 0.41018 0.28976 0.0
C1637 C 0.76113 0.39079 0.25722 0.0
H1638 H 0.68755 0.30149 0.14151 0.0
H1639 H 0.70679 0.32166 0.16630 0.0
H1640 H 0.73472 0.41127 0.30592 0.0
H1641 H 0.71549 0.39110 0.28113 0.0
C1642 C 0.68071 0.30677 0.15409 0.0
C1643 C 0.69210 0.31867 0.16869 0.0
C1644 C 0.74157 0.40599 0.29334 0.0
C1645 C 0.73018 0.39409 0.27874 0.0
C1646 C 0.68226 0.32621 0.18667 0.0
C1647 C 0.69484 0.33935 0.20281 0.0
C1648 C 0.70487 0.34983 0.21567 0.0
C1649 C 0.74002 0.38656 0.26076 0.0
C1650 C 0.72744 0.37341 0.24462 0.0
C1651 C 0.71741 0.36293 0.23176 0.0
H1652 H 0.63501 0.30710 0.17804 0.0
H1653 H 0.65437 0.32725 0.20274 0.0
H1654 H 0.78727 0.40566 0.26939 0.0
H1655 H 0.76791 0.38551 0.24469 0.0
C1656 C 0.25585 0.91610 0.20942 0.0
C1657 C 0.23537 0.91051 0.20454 0.0
C1658 C 0.26712 0.90450 0.22428 0.0
C1659 C 0.31679 0.80002 0.33405 0.0
C1660 C 0.33727 0.80560 0.33893 0.0
C1661 C 0.30553 0.81161 0.31920 0.0
H1662 H 0.21162 0.88968 0.21079 0.0
H1663 H 0.23077 0.87007 0.23596 0.0
H1664 H 0.36103 0.82643 0.33269 0.0
H1665 H 0.34188 0.84604 0.30752 0.0
C1666 C 0.22596 0.89353 0.21426 0.0
C1667 C 0.23723 0.88193 0.22912 0.0
C1668 C 0.34669 0.82258 0.32922 0.0
C1669 C 0.33542 0.83418 0.31436 0.0
C1670 C 0.25775 0.88748 0.23405 0.0
C1671 C 0.27020 0.87466 0.25047 0.0
C1672 C 0.28012 0.86445 0.26355 0.0
C1673 C 0.31490 0.82864 0.30943 0.0
C1674 C 0.30245 0.84145 0.29301 0.0
C1675 C 0.29253 0.85167 0.27992 0.0
H1676 H 0.26237 0.92800 0.20257 0.0
H1677 H 0.28140 0.90830 0.22776 0.0
H1678 H 0.31027 0.78811 0.34090 0.0
H1679 H 0.29124 0.80781 0.31572 0.0
C1680 C 0.17288 0.18166 0.84928 0.0
C1681 C 0.15964 0.19742 0.84233 0.0
C1682 C 0.18427 0.16976 0.83467 0.0
C1683 C 0.24940 0.10558 0.70329 0.0
C1684 C 0.26264 0.08982 0.71024 0.0
C1685 C 0.23801 0.11748 0.71790 0.0
H1686 H 0.14830 0.21255 0.81625 0.0
H1687 H 0.16763 0.19235 0.79156 0.0
H1688 H 0.27398 0.07469 0.73632 0.0
H1689 H 0.25465 0.09489 0.76101 0.0
C1690 C 0.15759 0.20149 0.82103 0.0
C1691 C 0.16898 0.18960 0.80643 0.0
C1692 C 0.26469 0.08575 0.73154 0.0
C1693 C 0.25330 0.09764 0.74614 0.0
C1694 C 0.18226 0.17379 0.81333 0.0
C1695 C 0.19484 0.16065 0.79719 0.0
C1696 C 0.20487 0.15017 0.78433 0.0
C1697 C 0.24002 0.11344 0.73924 0.0
C1698 C 0.22744 0.12659 0.75538 0.0
C1699 C 0.21741 0.13707 0.76824 0.0
H1700 H 0.17426 0.17886 0.86420 0.0
H1701 H 0.19353 0.15875 0.83940 0.0
H1702 H 0.24802 0.10838 0.68837 0.0
H1703 H 0.22875 0.12849 0.71317 0.0
C1704 C 0.79414 0.74534 0.60989 0.0
C1705 C 0.78827 0.73627 0.59095 0.0
C1706 C 0.77948 0.75698 0.62144 0.0
C1707 C 0.64980 0.83258 0.67651 0.0
C1708 C 0.65567 0.84164 0.69545 0.0
C1709 C 0.66446 0.82093 0.66496 0.0
H1710 H 0.76396 0.73227 0.57009 0.0
H1711 H 0.73917 0.75203 0.58972 0.0
H1712 H 0.67998 0.84564 0.71631 0.0
H1713 H 0.70477 0.82588 0.69668 0.0
C1714 C 0.76799 0.73865 0.58336 0.0
C1715 C 0.75333 0.75030 0.59491 0.0
C1716 C 0.67595 0.83926 0.70304 0.0
C1717 C 0.69060 0.82761 0.69149 0.0
C1718 C 0.75916 0.75941 0.61389 0.0
C1719 C 0.74295 0.77228 0.62666 0.0
C1720 C 0.73004 0.78254 0.63684 0.0
C1721 C 0.68478 0.81851 0.67251 0.0
C1722 C 0.70098 0.80563 0.65974 0.0
C1723 C 0.71389 0.79537 0.64956 0.0
H1724 H 0.80836 0.74362 0.61514 0.0
H1725 H 0.78346 0.76335 0.63466 0.0
H1726 H 0.63558 0.83429 0.67126 0.0
H1727 H 0.66048 0.81456 0.65174 0.0
C1728 C 0.73141 0.26502 0.08645 0.0
C1729 C 0.71013 0.26169 0.08966 0.0
C1730 C 0.74614 0.25376 0.09823 0.0
C1731 C 0.82209 0.15655 0.19941 0.0
C1732 C 0.84337 0.15988 0.19620 0.0
C1733 C 0.80736 0.16781 0.18763 0.0
H1734 H 0.68840 0.24503 0.10663 0.0
H1735 H 0.71342 0.22599 0.12656 0.0
H1736 H 0.86511 0.17654 0.17923 0.0
H1737 H 0.84008 0.19557 0.15931 0.0
C1738 C 0.70332 0.24730 0.10444 0.0
C1739 C 0.71805 0.23605 0.11622 0.0
C1740 C 0.85019 0.17426 0.18142 0.0
C1741 C 0.83546 0.18552 0.16964 0.0
C1742 C 0.73939 0.23934 0.11305 0.0
C1743 C 0.75567 0.22690 0.12607 0.0
C1744 C 0.76864 0.21698 0.13644 0.0
C1745 C 0.81412 0.18223 0.17281 0.0
C1746 C 0.79784 0.19467 0.15979 0.0
C1747 C 0.78487 0.20458 0.14942 0.0
H1748 H 0.73610 0.27511 0.07608 0.0
H1749 H 0.76101 0.25600 0.09608 0.0
H1750 H 0.81740 0.14646 0.20978 0.0
H1751 H 0.79250 0.16557 0.18978 0.0
C1752 C 0.16948 0.67157 0.29419 0.0
C1753 C 0.15567 0.65836 0.30455 0.0
C1754 C 0.18414 0.68321 0.30574 0.0
C1755 C 0.27446 0.75052 0.41941 0.0
C1756 C 0.28827 0.76373 0.40905 0.0
C1757 C 0.25980 0.73887 0.40786 0.0
H1758 H 0.14656 0.64733 0.33344 0.0
H1759 H 0.17143 0.66710 0.35295 0.0
H1760 H 0.29738 0.77476 0.38016 0.0
H1761 H 0.27251 0.75499 0.36065 0.0
C1762 C 0.15626 0.65660 0.32626 0.0
C1763 C 0.17092 0.66824 0.33781 0.0
C1764 C 0.28768 0.76549 0.38734 0.0
C1765 C 0.27302 0.75384 0.37579 0.0
C1766 C 0.18478 0.68149 0.32749 0.0
C1767 C 0.20098 0.69437 0.34026 0.0
C1768 C 0.21389 0.70463 0.35044 0.0
C1769 C 0.25916 0.74059 0.38611 0.0
C1770 C 0.24295 0.72772 0.37334 0.0
C1771 C 0.23004 0.71746 0.36316 0.0
H1772 H 0.16900 0.67274 0.27899 0.0
H1773 H 0.19382 0.69245 0.29863 0.0
H1774 H 0.27494 0.74934 0.43461 0.0
H1775 H 0.25012 0.72963 0.41497 0.0
C1776 C 0.21668 0.25787 0.91721 0.0
C1777 C 0.21013 0.23831 0.91034 0.0
C1778 C 0.23141 0.26912 0.90544 0.0
C1779 C 0.33683 0.32056 0.79692 0.0
C1780 C 0.34337 0.34012 0.80380 0.0
C1781 C 0.32210 0.30931 0.80870 0.0
H1782 H 0.21342 0.21611 0.88714 0.0
H1783 H 0.23838 0.23524 0.86723 0.0
H1784 H 0.34008 0.36232 0.82700 0.0
H1785 H 0.31512 0.34319 0.84690 0.0
C1786 C 0.21806 0.22981 0.89189 0.0
C1787 C 0.23279 0.24107 0.88011 0.0
C1788 C 0.33545 0.34862 0.82225 0.0
C1789 C 0.32072 0.33736 0.83403 0.0
C1790 C 0.23939 0.26066 0.88695 0.0
C1791 C 0.25567 0.27310 0.87393 0.0
C1792 C 0.26864 0.28302 0.86356 0.0
C1793 C 0.31412 0.31777 0.82719 0.0
C1794 C 0.29784 0.30533 0.84021 0.0
C1795 C 0.28487 0.29542 0.85058 0.0
H1796 H 0.21108 0.26375 0.93014 0.0
H1797 H 0.23605 0.28277 0.91013 0.0
H1798 H 0.34243 0.31468 0.78400 0.0
H1799 H 0.31746 0.29567 0.80401 0.0
C1800 C 0.60167 0.78108 0.72411 0.0
C1801 C 0.58677 0.79308 0.73452 0.0
C1802 C 0.61379 0.76666 0.73537 0.0
C1803 C 0.68156 0.67470 0.84678 0.0
C1804 C 0.69646 0.66270 0.83636 0.0
C1805 C 0.66944 0.68912 0.83552 0.0
H1806 H 0.57334 0.79937 0.76321 0.0
H1807 H 0.59393 0.77492 0.78223 0.0
H1808 H 0.70989 0.65641 0.80767 0.0
H1809 H 0.68930 0.68086 0.78866 0.0
C1810 C 0.58379 0.79093 0.75599 0.0
C1811 C 0.59592 0.77651 0.76725 0.0
C1812 C 0.69944 0.66486 0.81489 0.0
C1813 C 0.68731 0.67927 0.80363 0.0
C1814 C 0.61086 0.76446 0.75688 0.0
C1815 C 0.62426 0.74853 0.76932 0.0
C1816 C 0.63494 0.73583 0.77924 0.0
C1817 C 0.67238 0.69133 0.81400 0.0
C1818 C 0.65898 0.70726 0.80156 0.0
C1819 C 0.64830 0.71995 0.79164 0.0
H1820 H 0.60369 0.78265 0.70907 0.0
H1821 H 0.62421 0.75824 0.72821 0.0
H1822 H 0.67954 0.67313 0.86182 0.0
H1823 H 0.65903 0.69754 0.84267 0.0
C1824 C 0.18411 0.82293 0.15291 0.0
C1825 C 0.19646 0.83730 0.16364 0.0
C1826 C 0.17198 0.80852 0.16417 0.0
C1827 C 0.09913 0.72128 0.27621 0.0
C1828 C 0.08677 0.70692 0.26548 0.0
C1829 C 0.11125 0.73570 0.26495 0.0
H1830 H 0.20557 0.84760 0.19286 0.0
H1831 H 0.18500 0.82314 0.21188 0.0
H1832 H 0.07766 0.69662 0.23625 0.0
H1833 H 0.09824 0.72108 0.21724 0.0
C1834 C 0.19690 0.83751 0.18543 0.0
C1835 C 0.18477 0.82309 0.19669 0.0
C1836 C 0.08634 0.70671 0.24369 0.0
C1837 C 0.09846 0.72112 0.23243 0.0
C1838 C 0.17238 0.80867 0.18600 0.0
C1839 C 0.15898 0.79274 0.19844 0.0
C1840 C 0.14830 0.78005 0.20836 0.0
C1841 C 0.11086 0.73554 0.24312 0.0
C1842 C 0.12426 0.75147 0.23068 0.0
C1843 C 0.13494 0.76417 0.22076 0.0
H1844 H 0.18385 0.82285 0.13765 0.0
H1845 H 0.16333 0.79846 0.15680 0.0
H1846 H 0.09938 0.72136 0.29147 0.0
H1847 H 0.11990 0.74576 0.27232 0.0
C1848 C 0.30280 0.15740 0.68160 0.0
C1849 C 0.30362 0.15734 0.65982 0.0
C1850 C 0.31467 0.17200 0.69299 0.0
C1851 C 0.41182 0.28932 0.74106 0.0
C1852 C 0.41100 0.28938 0.76284 0.0
C1853 C 0.39995 0.27472 0.72967 0.0
H1854 H 0.31663 0.17152 0.63398 0.0
H1855 H 0.33672 0.19623 0.65335 0.0
H1856 H 0.39799 0.27520 0.78868 0.0
H1857 H 0.37790 0.25049 0.76932 0.0
C1858 C 0.31611 0.17163 0.64923 0.0
C1859 C 0.32798 0.18622 0.66062 0.0
C1860 C 0.39851 0.27509 0.77343 0.0
C1861 C 0.38664 0.26050 0.76204 0.0
C1862 C 0.32720 0.18633 0.68244 0.0
C1863 C 0.34032 0.20246 0.69503 0.0
C1864 C 0.35077 0.21532 0.70506 0.0
C1865 C 0.38743 0.26039 0.74022 0.0
C1866 C 0.37431 0.24425 0.72764 0.0
C1867 C 0.36385 0.23140 0.71761 0.0
H1868 H 0.29403 0.14736 0.68894 0.0
H1869 H 0.31417 0.17213 0.70818 0.0
H1870 H 0.42059 0.29935 0.73372 0.0
H1871 H 0.40045 0.27459 0.71449 0.0
C1872 C 0.80234 0.32158 0.34514 0.0
C1873 C 0.80362 0.34266 0.34018 0.0
C1874 C 0.81421 0.30698 0.33375 0.0
C1875 C 0.91228 0.23170 0.23220 0.0
C1876 C 0.91100 0.21062 0.23716 0.0
C1877 C 0.90041 0.24630 0.24359 0.0
H1878 H 0.81741 0.36417 0.32062 0.0
H1879 H 0.83750 0.33938 0.30137 0.0
H1880 H 0.89721 0.18911 0.25671 0.0
H1881 H 0.87712 0.21390 0.27597 0.0
C1882 C 0.81657 0.34940 0.32403 0.0
C1883 C 0.82844 0.33480 0.31264 0.0
C1884 C 0.89805 0.20389 0.25331 0.0
C1885 C 0.88618 0.21848 0.26469 0.0
C1886 C 0.82720 0.31367 0.31756 0.0
C1887 C 0.84032 0.29754 0.30497 0.0
C1888 C 0.85077 0.28468 0.29494 0.0
C1889 C 0.88743 0.23961 0.25978 0.0
C1890 C 0.87431 0.25575 0.27236 0.0
C1891 C 0.86385 0.26860 0.28239 0.0
H1892 H 0.79325 0.31694 0.35646 0.0
H1893 H 0.81340 0.29226 0.33711 0.0
H1894 H 0.92137 0.23634 0.22088 0.0
H1895 H 0.90123 0.26102 0.24023 0.0
C1896 C 0.16914 0.33662 0.47677 0.0
C1897 C 0.14941 0.33522 0.46765 0.0
C1898 C 0.17454 0.35443 0.48847 0.0
C1899 C 0.17851 0.49489 0.56439 0.0
C1900 C 0.19825 0.49629 0.57351 0.0
C1901 C 0.17311 0.47708 0.55268 0.0
H1902 H 0.12118 0.35026 0.46360 0.0
H1903 H 0.13040 0.38040 0.48345 0.0
H1904 H 0.22647 0.48125 0.57756 0.0
H1905 H 0.21725 0.45110 0.55771 0.0
C1906 C 0.13498 0.35131 0.47002 0.0
C1907 C 0.14038 0.36912 0.48172 0.0
C1908 C 0.21267 0.48019 0.57114 0.0
C1909 C 0.20727 0.46239 0.55944 0.0
C1910 C 0.16013 0.37058 0.49089 0.0
C1911 C 0.16610 0.39026 0.50382 0.0
C1912 C 0.17085 0.40594 0.51413 0.0
C1913 C 0.18752 0.46092 0.55027 0.0
C1914 C 0.18156 0.44124 0.53733 0.0
C1915 C 0.17680 0.42556 0.52703 0.0
H1916 H 0.17918 0.32531 0.47506 0.0
H1917 H 0.18827 0.35551 0.49488 0.0
H1918 H 0.16847 0.50620 0.56610 0.0
H1919 H 0.15939 0.47599 0.54628 0.0
C1920 C 0.29740 0.52363 0.08085 0.0
C1921 C 0.30210 0.50385 0.07313 0.0
C1922 C 0.30287 0.54135 0.06918 0.0
C1923 C 0.35628 0.64444 0.95982 0.0
C1924 C 0.35158 0.66421 0.96753 0.0
C1925 C 0.35081 0.62671 0.97149 0.0
H1926 H 0.31543 0.48761 0.04862 0.0
H1927 H 0.32467 0.51770 0.02889 0.0
H1928 H 0.33825 0.68045 0.99205 0.0
H1929 H 0.32901 0.65036 0.01178 0.0
C1930 C 0.31217 0.50149 0.05395 0.0
C1931 C 0.31764 0.51922 0.04227 0.0
C1932 C 0.34151 0.66657 0.98672 0.0
C1933 C 0.33603 0.64884 0.99839 0.0
C1934 C 0.31296 0.53906 0.04995 0.0
C1935 C 0.31901 0.55865 0.03705 0.0
C1936 C 0.32383 0.57427 0.02677 0.0
C1937 C 0.34072 0.62901 0.99072 0.0
C1938 C 0.33467 0.60941 0.00362 0.0
C1939 C 0.32985 0.59380 0.01390 0.0
H1940 H 0.29034 0.52519 0.09429 0.0
H1941 H 0.29964 0.55519 0.07445 0.0
H1942 H 0.36334 0.64287 0.94638 0.0
H1943 H 0.35404 0.61287 0.96622 0.0
C1944 C 0.65890 0.14794 0.54224 0.0
C1945 C 0.64941 0.16478 0.53235 0.0
C1946 C 0.66430 0.13013 0.53053 0.0
C1947 C 0.68875 0.02055 0.41661 0.0
C1948 C 0.69825 0.00371 0.42649 0.0
C1949 C 0.68335 0.03836 0.42831 0.0
H1950 H 0.63856 0.17596 0.50413 0.0
H1951 H 0.64774 0.14575 0.48436 0.0
H1952 H 0.70909 0.99253 0.45471 0.0
H1953 H 0.69991 0.02274 0.47448 0.0
C1954 C 0.64521 0.16413 0.51097 0.0
C1955 C 0.65061 0.14632 0.49927 0.0
C1956 C 0.70244 0.00437 0.44787 0.0
C1957 C 0.69704 0.02217 0.45957 0.0
C1958 C 0.66013 0.12942 0.50911 0.0
C1959 C 0.66610 0.10974 0.49618 0.0
C1960 C 0.67085 0.09406 0.48587 0.0
C1961 C 0.68752 0.03908 0.44973 0.0
C1962 C 0.68156 0.05876 0.46267 0.0
C1963 C 0.67680 0.07444 0.47297 0.0
H1964 H 0.66180 0.14848 0.55721 0.0
H1965 H 0.67093 0.11833 0.53731 0.0
H1966 H 0.68585 0.02002 0.40163 0.0
H1967 H 0.67672 0.05016 0.42153 0.0
C1968 C 0.83950 0.85139 0.04164 0.0
C1969 C 0.85158 0.83579 0.03247 0.0
C1970 C 0.83402 0.86912 0.02997 0.0
C1971 C 0.81418 0.98055 0.91769 0.0
C1972 C 0.80210 0.99615 0.92687 0.0
C1973 C 0.81965 0.96282 0.92936 0.0
H1974 H 0.86675 0.82664 0.00546 0.0
H1975 H 0.85744 0.85671 0.98574 0.0
H1976 H 0.78693 0.00530 0.95387 0.0
H1977 H 0.79624 0.97523 0.97359 0.0
C1978 C 0.85829 0.83760 0.01182 0.0
C1979 C 0.85282 0.85533 0.00010 0.0
C1980 C 0.79539 0.99433 0.94751 0.0
C1981 C 0.80086 0.97660 0.95919 0.0
C1982 C 0.84072 0.87099 0.00928 0.0
C1983 C 0.83467 0.89059 0.99638 0.0
C1984 C 0.82985 0.90620 0.98610 0.0
C1985 C 0.81296 0.96094 0.95005 0.0
C1986 C 0.81901 0.94135 0.96295 0.0
C1987 C 0.82383 0.92573 0.97323 0.0
H1988 H 0.83484 0.85004 0.05611 0.0
H1989 H 0.82560 0.88006 0.03626 0.0
H1990 H 0.81884 0.98190 0.90322 0.0
H1991 H 0.82808 0.95188 0.92307 0.0
C1992 C 0.55355 0.20681 0.49327 0.0
C1993 C 0.57344 0.19843 0.49607 0.0
C1994 C 0.54182 0.20138 0.47545 0.0
C1995 C 0.48724 0.14092 0.33764 0.0
C1996 C 0.46735 0.14931 0.33484 0.0
C1997 C 0.49897 0.14635 0.35546 0.0
H1998 H 0.59575 0.17888 0.48340 0.0
H1999 H 0.57581 0.16972 0.45321 0.0
H2000 H 0.44504 0.16885 0.34751 0.0
H2001 H 0.46498 0.17801 0.37770 0.0
C2002 C 0.58181 0.18471 0.48136 0.0
C2003 C 0.57008 0.17928 0.46354 0.0
C2004 C 0.45898 0.16302 0.34955 0.0
C2005 C 0.47071 0.16845 0.36737 0.0
C2006 C 0.55015 0.18764 0.46067 0.0
C2007 C 0.53719 0.18164 0.44097 0.0
C2008 C 0.52686 0.17686 0.42527 0.0
C2009 C 0.49064 0.16009 0.37023 0.0
C2010 C 0.50360 0.16609 0.38994 0.0
C2011 C 0.51393 0.17088 0.40563 0.0
H2012 H 0.54776 0.21641 0.50362 0.0
H2013 H 0.52794 0.20716 0.47339 0.0
H2014 H 0.49303 0.13132 0.32729 0.0
H2015 H 0.51285 0.14057 0.35752 0.0
C2016 C 0.92860 0.82239 0.99067 0.0
C2017 C 0.92763 0.80164 0.99690 0.0
C2018 C 0.94037 0.82788 0.97293 0.0
C2019 C 0.03312 0.83048 0.84260 0.0
C2020 C 0.03409 0.85124 0.83637 0.0
C2021 C 0.02135 0.82500 0.86035 0.0
H2022 H 0.93750 0.77176 0.99013 0.0
H2023 H 0.95743 0.78113 0.96006 0.0
H2024 H 0.02422 0.88111 0.84315 0.0
H2025 H 0.00429 0.87175 0.87322 0.0
C2026 C 0.93823 0.78627 0.98570 0.0
C2027 C 0.95000 0.79175 0.96795 0.0
C2028 C 0.02349 0.86660 0.84758 0.0
C2029 C 0.01172 0.86112 0.86532 0.0
C2030 C 0.95100 0.81253 0.96166 0.0
C2031 C 0.96401 0.81859 0.94204 0.0
C2032 C 0.97438 0.82342 0.92641 0.0
C2033 C 0.01072 0.84035 0.87162 0.0
C2034 C 0.99771 0.83429 0.89123 0.0
C2035 C 0.98734 0.82946 0.90686 0.0
H2036 H 0.92115 0.83309 0.99857 0.0
H2037 H 0.94111 0.84231 0.96849 0.0
H2038 H 0.04057 0.81978 0.83470 0.0
H2039 H 0.02061 0.81056 0.86479 0.0
C2040 C 0.07082 0.32248 0.50920 0.0
C2041 C 0.07344 0.30157 0.50393 0.0
C2042 C 0.05909 0.32791 0.52702 0.0
C2043 C 0.96997 0.32978 0.65989 0.0
C2044 C 0.96735 0.35069 0.66516 0.0
C2045 C 0.98170 0.32435 0.64207 0.0
H2046 H 0.06643 0.27138 0.51241 0.0
H2047 H 0.04657 0.28065 0.54260 0.0
H2048 H 0.97435 0.38089 0.65668 0.0
H2049 H 0.99422 0.37161 0.62649 0.0
C2050 C 0.06455 0.28600 0.51617 0.0
C2051 C 0.05282 0.29143 0.53399 0.0
C2052 C 0.97624 0.36627 0.65292 0.0
C2053 C 0.98797 0.36084 0.63510 0.0
C2054 C 0.05015 0.31236 0.53933 0.0
C2055 C 0.03719 0.31836 0.55903 0.0
C2056 C 0.02686 0.32314 0.57473 0.0
C2057 C 0.99064 0.33991 0.62977 0.0
C2058 C 0.00360 0.33391 0.61006 0.0
C2059 C 0.01393 0.32912 0.59437 0.0
H2060 H 0.07708 0.33333 0.50058 0.0
H2061 H 0.05719 0.34246 0.53080 0.0
H2062 H 0.96371 0.31893 0.66852 0.0
H2063 H 0.98360 0.30981 0.63830 0.0
C2064 C 0.53471 0.66914 0.15623 0.0
C2065 C 0.53409 0.64876 0.16363 0.0
C2066 C 0.52294 0.67463 0.13848 0.0
C2067 C 0.42701 0.67798 0.01050 0.0
C2068 C 0.42763 0.69836 0.00310 0.0
C2069 C 0.43878 0.67250 0.02824 0.0
H2070 H 0.52153 0.61952 0.15884 0.0
H2071 H 0.50161 0.62889 0.12877 0.0
H2072 H 0.44019 0.72760 0.00789 0.0
H2073 H 0.46011 0.71824 0.03796 0.0
C2074 C 0.52191 0.63377 0.15359 0.0
C2075 C 0.51014 0.63925 0.13584 0.0
C2076 C 0.43981 0.71335 0.01313 0.0
C2077 C 0.45158 0.70787 0.03088 0.0
C2078 C 0.51072 0.65965 0.12838 0.0
C2079 C 0.49771 0.66571 0.10877 0.0
C2080 C 0.48734 0.67054 0.09314 0.0
C2081 C 0.45100 0.68747 0.03834 0.0
C2082 C 0.46401 0.68141 0.05796 0.0
C2083 C 0.47438 0.67658 0.07359 0.0
H2084 H 0.54326 0.67958 0.16331 0.0
H2085 H 0.52329 0.68880 0.13323 0.0
H2086 H 0.41846 0.66754 0.00341 0.0
H2087 H 0.43843 0.65832 0.03349 0.0
C2088 C 0.47780 0.57818 0.20562 0.0
C2089 C 0.49704 0.57312 0.19673 0.0
C2090 C 0.45995 0.56645 0.20039 0.0
C2091 C 0.35481 0.46201 0.14057 0.0
C2092 C 0.33557 0.46707 0.14946 0.0
C2093 C 0.37266 0.47374 0.14580 0.0
H2094 H 0.51225 0.55308 0.17653 0.0
H2095 H 0.48196 0.53325 0.16772 0.0
H2096 H 0.32036 0.48712 0.16966 0.0
H2097 H 0.35066 0.50694 0.17847 0.0
C2098 C 0.49874 0.55655 0.18271 0.0
C2099 C 0.48089 0.54483 0.17748 0.0
C2100 C 0.33387 0.48364 0.16348 0.0
C2101 C 0.35172 0.49537 0.16871 0.0
C2102 C 0.46159 0.54984 0.18635 0.0
C2103 C 0.44186 0.53688 0.18057 0.0
C2104 C 0.42614 0.52656 0.17597 0.0
C2105 C 0.37102 0.49035 0.15984 0.0
C2106 C 0.39075 0.50331 0.16561 0.0
C2107 C 0.40647 0.51364 0.17021 0.0
H2108 H 0.47670 0.58980 0.21543 0.0
H2109 H 0.44649 0.56988 0.20652 0.0
H2110 H 0.35592 0.45039 0.13076 0.0
H2111 H 0.38613 0.47031 0.13966 0.0
C2112 C 0.84742 0.02378 0.86632 0.0
C2113 C 0.83557 0.03293 0.85054 0.0
C2114 C 0.86527 0.01205 0.86109 0.0
C2115 C 0.98519 0.93603 0.78749 0.0
C2116 C 0.99704 0.92688 0.80327 0.0
C2117 C 0.96734 0.94775 0.79272 0.0
H2118 H 0.83291 0.03701 0.81864 0.0
H2119 H 0.86317 0.01712 0.80986 0.0
H2120 H 0.99990 0.92280 0.83517 0.0
H2121 H 0.96944 0.94268 0.84396 0.0
C2122 C 0.84126 0.03057 0.82963 0.0
C2123 C 0.85911 0.01884 0.82440 0.0
C2124 C 0.99136 0.92924 0.82419 0.0
C2125 C 0.97351 0.94097 0.82941 0.0
C2126 C 0.87102 0.00965 0.84016 0.0
C2127 C 0.89075 0.99669 0.83439 0.0
C2128 C 0.90647 0.98636 0.82979 0.0
C2129 C 0.96159 0.95016 0.81365 0.0
C2130 C 0.94186 0.96312 0.81943 0.0
C2131 C 0.92614 0.97344 0.82403 0.0
H2132 H 0.84337 0.02548 0.88094 0.0
H2133 H 0.87361 0.00562 0.87201 0.0
H2134 H 0.98924 0.93433 0.77287 0.0
H2135 H 0.95900 0.95418 0.78181 0.0
C2136 C 0.51890 0.06862 0.28605 0.0
C2137 C 0.50402 0.07334 0.30126 0.0
C2138 C 0.53668 0.05689 0.29145 0.0
C2139 C 0.64991 0.97197 0.36531 0.0
C2140 C 0.66479 0.96725 0.35010 0.0
C2141 C 0.63213 0.98369 0.35991 0.0
H2142 H 0.49613 0.06988 0.33236 0.0
H2143 H 0.52628 0.05001 0.34144 0.0
H2144 H 0.67268 0.97070 0.31900 0.0
H2145 H 0.64253 0.99058 0.30992 0.0
C2146 C 0.50660 0.06654 0.32177 0.0
C2147 C 0.52437 0.05481 0.32717 0.0
C2148 C 0.66221 0.97405 0.32959 0.0
C2149 C 0.64444 0.98578 0.32419 0.0
C2150 C 0.53932 0.05005 0.31198 0.0
C2151 C 0.55896 0.03708 0.31795 0.0
C2152 C 0.57461 0.02675 0.32270 0.0
C2153 C 0.62949 0.99054 0.33938 0.0
C2154 C 0.60985 0.00350 0.33341 0.0
C2155 C 0.59419 0.01383 0.32865 0.0
H2156 H 0.51702 0.07342 0.27171 0.0
H2157 H 0.54712 0.05354 0.28093 0.0
H2158 H 0.65178 0.96716 0.37965 0.0
H2159 H 0.62169 0.98705 0.37043 0.0
C2160 C 0.15446 0.53679 0.66867 0.0
C2161 C 0.16479 0.53275 0.64990 0.0
C2162 C 0.13669 0.52506 0.67407 0.0
C2163 C 0.01435 0.42262 0.67997 0.0
C2164 C 0.00402 0.42666 0.69874 0.0
C2165 C 0.03212 0.43435 0.67457 0.0
H2166 H 0.16494 0.51443 0.62331 0.0
H2167 H 0.13482 0.49459 0.63253 0.0
H2168 H 0.00387 0.44498 0.72533 0.0
H2169 H 0.03399 0.46482 0.71612 0.0
C2170 C 0.15765 0.51720 0.63643 0.0
C2171 C 0.13988 0.50547 0.64183 0.0
C2172 C 0.01115 0.44222 0.71221 0.0
C2173 C 0.02893 0.45395 0.70681 0.0
C2174 C 0.12949 0.50946 0.66062 0.0
C2175 C 0.10985 0.49650 0.66659 0.0
C2176 C 0.09419 0.48617 0.67135 0.0
C2177 C 0.03932 0.44995 0.68802 0.0
C2178 C 0.05896 0.46292 0.68205 0.0
C2179 C 0.07461 0.47325 0.67730 0.0
H2180 H 0.15952 0.54770 0.67804 0.0
H2181 H 0.12941 0.52778 0.68713 0.0
H2182 H 0.00929 0.41171 0.67060 0.0
H2183 H 0.03940 0.43163 0.66151 0.0
C2184 C 0.79911 0.52308 0.41888 0.0
C2185 C 0.80109 0.50336 0.42769 0.0
C2186 C 0.80444 0.54083 0.43070 0.0
C2187 C 0.85132 0.64421 0.54341 0.0
C2188 C 0.84934 0.66393 0.53460 0.0
C2189 C 0.84599 0.62645 0.53159 0.0
H2190 H 0.80967 0.48723 0.45422 0.0
H2191 H 0.81869 0.51736 0.47419 0.0
H2192 H 0.84075 0.68005 0.50807 0.0
H2193 H 0.83173 0.64993 0.48810 0.0
C2194 C 0.80831 0.50108 0.44812 0.0
C2195 C 0.81365 0.51883 0.45994 0.0
C2196 C 0.84211 0.66621 0.51417 0.0
C2197 C 0.83678 0.64846 0.50235 0.0
C2198 C 0.81168 0.53861 0.45117 0.0
C2199 C 0.81758 0.55823 0.46423 0.0
C2200 C 0.82227 0.57387 0.47464 0.0
C2201 C 0.83874 0.62867 0.51113 0.0
C2202 C 0.83285 0.60906 0.49807 0.0
C2203 C 0.82815 0.59342 0.48766 0.0
H2204 H 0.79404 0.52459 0.40457 0.0
H2205 H 0.80310 0.55463 0.42466 0.0
H2206 H 0.85639 0.64269 0.55772 0.0
H2207 H 0.84733 0.61266 0.53763 0.0
C2208 C 0.70376 0.48943 0.94941 0.0
C2209 C 0.69801 0.49064 0.92843 0.0
C2210 C 0.69825 0.47178 0.96118 0.0
C2211 C 0.64241 0.33218 0.01393 0.0
C2212 C 0.64816 0.33097 0.03491 0.0
C2213 C 0.64792 0.34983 0.00216 0.0
H2214 H 0.68285 0.47543 0.90431 0.0
H2215 H 0.67355 0.44555 0.92433 0.0
H2216 H 0.66332 0.34618 0.05902 0.0
H2217 H 0.67262 0.37607 0.03901 0.0
C2218 C 0.68684 0.47451 0.91901 0.0
C2219 C 0.68133 0.45686 0.93078 0.0
C2220 C 0.65933 0.34711 0.04433 0.0
C2221 C 0.66484 0.36476 0.03256 0.0
C2222 C 0.68707 0.45559 0.95181 0.0
C2223 C 0.68097 0.43608 0.96482 0.0
C2224 C 0.67612 0.42053 0.97518 0.0
C2225 C 0.65911 0.36603 0.01153 0.0
C2226 C 0.66520 0.38554 0.99852 0.0
C2227 C 0.67005 0.40108 0.98815 0.0
H2228 H 0.71158 0.50077 0.95593 0.0
H2229 H 0.70221 0.47083 0.97582 0.0
H2230 H 0.63459 0.32084 0.00741 0.0
H2231 H 0.64396 0.35079 0.98752 0.0
C2232 C 0.29051 0.99239 0.55372 0.0
C2233 C 0.30109 0.99664 0.57231 0.0
C2234 C 0.29585 0.97464 0.54191 0.0
C2235 C 0.35991 0.84033 0.48398 0.0
C2236 C 0.34934 0.83607 0.46540 0.0
C2237 C 0.35458 0.85808 0.49580 0.0
H2238 H 0.32427 0.98650 0.59230 0.0
H2239 H 0.33325 0.95644 0.57222 0.0
H2240 H 0.32616 0.84621 0.44541 0.0
H2241 H 0.31718 0.87627 0.46549 0.0
C2242 C 0.31691 0.98345 0.57928 0.0
C2243 C 0.32224 0.96570 0.56746 0.0
C2244 C 0.33352 0.84926 0.45843 0.0
C2245 C 0.32819 0.86701 0.47025 0.0
C2246 C 0.31168 0.96139 0.54883 0.0
C2247 C 0.31758 0.94177 0.53577 0.0
C2248 C 0.32227 0.92613 0.52536 0.0
C2249 C 0.33874 0.87133 0.48887 0.0
C2250 C 0.33285 0.89094 0.50193 0.0
C2251 C 0.32815 0.90658 0.51234 0.0
H2252 H 0.27945 0.00167 0.54891 0.0
H2253 H 0.28854 0.97157 0.52894 0.0
H2254 H 0.37098 0.83104 0.48880 0.0
H2255 H 0.36188 0.86115 0.50877 0.0
C2256 C 0.20063 0.00917 0.04994 0.0
C2257 C 0.19801 0.00936 0.07157 0.0
C2258 C 0.19512 0.02682 0.03816 0.0
C2259 C 0.14554 0.16922 0.98673 0.0
C2260 C 0.14816 0.16903 0.96509 0.0
C2261 C 0.15105 0.15157 0.99850 0.0
H2262 H 0.18817 0.02695 0.09680 0.0
H2263 H 0.17885 0.05683 0.07678 0.0
H2264 H 0.15800 0.15143 0.93986 0.0
H2265 H 0.16732 0.12156 0.95988 0.0
C2266 C 0.18998 0.02689 0.08164 0.0
C2267 C 0.18446 0.04455 0.06987 0.0
C2268 C 0.15620 0.15149 0.95502 0.0
C2269 C 0.16171 0.13384 0.96679 0.0
C2270 C 0.18707 0.04441 0.04819 0.0
C2271 C 0.18097 0.06392 0.03518 0.0
C2272 C 0.17612 0.07947 0.02482 0.0
C2273 C 0.15911 0.13397 0.98847 0.0
C2274 C 0.16520 0.11446 0.00148 0.0
C2275 C 0.17005 0.09892 0.01185 0.0
H2276 H 0.20626 0.99685 0.04296 0.0
H2277 H 0.19690 0.02680 0.02307 0.0
H2278 H 0.13991 0.18154 0.99370 0.0
H2279 H 0.14927 0.15159 0.01359 0.0
C2280 C 0.53971 0.83839 0.64888 0.0
C2281 C 0.53141 0.85237 0.66338 0.0
C2282 C 0.52803 0.83290 0.63104 0.0
C2283 C 0.41745 0.81663 0.51654 0.0
C2284 C 0.42575 0.80265 0.50204 0.0
C2285 C 0.42913 0.82212 0.53438 0.0
H2286 H 0.50589 0.87073 0.67056 0.0
H2287 H 0.48615 0.86137 0.64031 0.0
H2288 H 0.45127 0.78429 0.49486 0.0
H2289 H 0.47100 0.79365 0.52511 0.0
C2290 C 0.51163 0.86095 0.66036 0.0
C2291 C 0.49995 0.85545 0.64252 0.0
C2292 C 0.44552 0.79407 0.50506 0.0
C2293 C 0.45721 0.79957 0.52290 0.0
C2294 C 0.50821 0.84146 0.62796 0.0
C2295 C 0.49530 0.83538 0.60824 0.0
C2296 C 0.48501 0.83054 0.59253 0.0
C2297 C 0.44895 0.81357 0.53746 0.0
C2298 C 0.46186 0.81964 0.55717 0.0
C2299 C 0.47214 0.82448 0.57288 0.0
H2300 H 0.55356 0.83243 0.65106 0.0
H2301 H 0.53371 0.82316 0.62086 0.0
H2302 H 0.40359 0.82259 0.51435 0.0
H2303 H 0.42345 0.83186 0.54456 0.0
C2304 C 0.97722 0.13412 0.15260 0.0
C2305 C 0.96769 0.14955 0.16464 0.0
C2306 C 0.98883 0.13969 0.13477 0.0
C2307 C 0.06318 0.21539 0.01547 0.0
C2308 C 0.07271 0.19996 0.00342 0.0
C2309 C 0.05157 0.20982 0.03329 0.0
H2310 H 0.96286 0.18121 0.16766 0.0
H2311 H 0.98255 0.19058 0.13744 0.0
H2312 H 0.07754 0.16830 0.00010 0.0
H2313 H 0.05785 0.15893 0.03062 0.0
C2314 C 0.96956 0.17046 0.15917 0.0
C2315 C 0.98117 0.17603 0.14135 0.0
C2316 C 0.07084 0.17905 0.00889 0.0
C2317 C 0.05923 0.17348 0.02671 0.0
C2318 C 0.99075 0.16062 0.12924 0.0
C2319 C 0.00358 0.16678 0.10955 0.0
C2320 C 0.01380 0.17169 0.09385 0.0
C2321 C 0.04965 0.18889 0.03882 0.0
C2322 C 0.03682 0.18273 0.05852 0.0
C2323 C 0.02660 0.17782 0.07421 0.0
H2324 H 0.97586 0.11950 0.15649 0.0
H2325 H 0.99552 0.12902 0.12630 0.0
H2326 H 0.06454 0.23001 0.01157 0.0
H2327 H 0.04488 0.22049 0.04176 0.0
C2328 C 0.02027 0.63238 0.34736 0.0
C2329 C 0.03141 0.64763 0.33662 0.0
C2330 C 0.00859 0.63788 0.36520 0.0
C2331 C 0.93689 0.71259 0.48722 0.0
C2332 C 0.92575 0.69735 0.49796 0.0
C2333 C 0.94857 0.70710 0.46938 0.0
H2334 H 0.03890 0.67889 0.33583 0.0
H2335 H 0.01908 0.68813 0.36606 0.0
H2336 H 0.91826 0.66609 0.49876 0.0
H2337 H 0.93808 0.65685 0.46852 0.0
C2338 C 0.03107 0.66827 0.34340 0.0
C2339 C 0.01939 0.67377 0.36124 0.0
C2340 C 0.92609 0.67671 0.49118 0.0
C2341 C 0.93777 0.67121 0.47334 0.0
C2342 C 0.00821 0.65854 0.37204 0.0
C2343 C 0.99530 0.66462 0.39176 0.0
C2344 C 0.98501 0.66946 0.40747 0.0
C2345 C 0.94895 0.68643 0.46254 0.0
C2346 C 0.96186 0.68036 0.44283 0.0
C2347 C 0.97214 0.67552 0.42712 0.0
H2348 H 0.02056 0.61795 0.34255 0.0
H2349 H 0.00010 0.62734 0.37277 0.0
H2350 H 0.93660 0.72703 0.49203 0.0
H2351 H 0.95637 0.71764 0.46181 0.0
C2352 C 0.47699 0.33085 0.83641 0.0
C2353 C 0.46769 0.35045 0.83536 0.0
C2354 C 0.48860 0.32528 0.85423 0.0
C2355 C 0.56341 0.31964 0.99553 0.0
C2356 C 0.57271 0.30004 0.99658 0.0
C2357 C 0.55180 0.32521 0.97771 0.0
H2358 H 0.46326 0.37827 0.85101 0.0
H2359 H 0.48295 0.36876 0.88118 0.0
H2360 H 0.57714 0.27222 0.98093 0.0
H2361 H 0.55745 0.28173 0.95075 0.0
C2362 C 0.46980 0.36457 0.85182 0.0
C2363 C 0.48141 0.35900 0.86965 0.0
C2364 C 0.57060 0.28592 0.98012 0.0
C2365 C 0.55899 0.29149 0.96229 0.0
C2366 C 0.49075 0.33938 0.87076 0.0
C2367 C 0.50358 0.33322 0.89045 0.0
C2368 C 0.51380 0.32831 0.90615 0.0
C2369 C 0.54965 0.31111 0.96118 0.0
C2370 C 0.53682 0.31727 0.94148 0.0
C2371 C 0.52660 0.32218 0.92579 0.0
H2372 H 0.47547 0.32102 0.82484 0.0
H2373 H 0.49513 0.31165 0.85507 0.0
H2374 H 0.56493 0.32947 0.00710 0.0
H2375 H 0.54527 0.33884 0.97687 0.0
C2376 C 0.51572 0.43800 0.78660 0.0
C2377 C 0.50511 0.42686 0.80197 0.0
C2378 C 0.53348 0.44977 0.79202 0.0
C2379 C 0.65519 0.52219 0.86634 0.0
C2380 C 0.66580 0.53333 0.85098 0.0
C2381 C 0.63743 0.51042 0.86092 0.0
H2382 H 0.50447 0.41946 0.83336 0.0
H2383 H 0.53459 0.43943 0.84247 0.0
H2384 H 0.66644 0.54073 0.81959 0.0
H2385 H 0.63632 0.52076 0.81048 0.0
C2386 C 0.51196 0.42729 0.82266 0.0
C2387 C 0.52972 0.43906 0.82808 0.0
C2388 C 0.65895 0.53290 0.83029 0.0
C2389 C 0.64119 0.52113 0.82487 0.0
C2390 C 0.54039 0.45024 0.81273 0.0
C2391 C 0.56002 0.46325 0.81872 0.0
C2392 C 0.57567 0.47361 0.82349 0.0
C2393 C 0.63052 0.50995 0.84022 0.0
C2394 C 0.61089 0.49694 0.83423 0.0
C2395 C 0.59524 0.48658 0.82946 0.0
H2396 H 0.51086 0.43765 0.77214 0.0
H2397 H 0.54096 0.45758 0.78140 0.0
H2398 H 0.66005 0.52254 0.88081 0.0
H2399 H 0.62995 0.50261 0.87155 0.0
C2400 C 0.01989 0.06832 0.21327 0.0
C2401 C 0.00511 0.07314 0.19803 0.0
C2402 C 0.03766 0.05655 0.20786 0.0
C2403 C 0.15102 0.97149 0.13378 0.0
C2404 C 0.16580 0.96667 0.14902 0.0
C2405 C 0.13325 0.98326 0.13920 0.0
H2406 H 0.99739 0.06981 0.16685 0.0
H2407 H 0.02752 0.04987 0.15774 0.0
H2408 H 0.17352 0.97000 0.18020 0.0
H2409 H 0.14339 0.98994 0.18931 0.0
C2410 C 0.00778 0.06640 0.17746 0.0
C2411 C 0.02555 0.05463 0.17205 0.0
C2412 C 0.16313 0.97341 0.16959 0.0
C2413 C 0.14536 0.98518 0.17501 0.0
C2414 C 0.04039 0.04976 0.18727 0.0
C2415 C 0.06002 0.03675 0.18128 0.0
C2416 C 0.07567 0.02639 0.17651 0.0
C2417 C 0.13052 0.99005 0.15978 0.0
C2418 C 0.11089 0.00306 0.16577 0.0
C2419 C 0.09524 0.01342 0.17054 0.0
H2420 H 0.01795 0.07307 0.22765 0.0
H2421 H 0.04803 0.05312 0.21840 0.0
H2422 H 0.15296 0.96674 0.11940 0.0
H2423 H 0.12288 0.98669 0.12866 0.0
C2424 C 0.48610 0.94103 0.71248 0.0
C2425 C 0.49551 0.92817 0.69761 0.0
C2426 C 0.46829 0.95269 0.70706 0.0
C2427 C 0.34378 0.02078 0.63373 0.0
C2428 C 0.33438 0.03364 0.64860 0.0
C2429 C 0.36159 0.00912 0.63915 0.0
H2430 H 0.49406 0.91774 0.66707 0.0
H2431 H 0.46386 0.93753 0.65796 0.0
H2432 H 0.33583 0.04407 0.67913 0.0
H2433 H 0.36602 0.02428 0.68825 0.0
C2434 C 0.48741 0.92677 0.67742 0.0
C2435 C 0.46960 0.93843 0.67200 0.0
C2436 C 0.34247 0.03504 0.66878 0.0
C2437 C 0.36029 0.02338 0.67420 0.0
C2438 C 0.46013 0.95133 0.68685 0.0
C2439 C 0.44044 0.96421 0.68086 0.0
C2440 C 0.42476 0.97448 0.67609 0.0
C2441 C 0.36975 0.01048 0.65936 0.0
C2442 C 0.38944 0.99759 0.66535 0.0
C2443 C 0.40513 0.98733 0.67012 0.0
H2444 H 0.49184 0.94196 0.72659 0.0
H2445 H 0.46165 0.96169 0.71734 0.0
H2446 H 0.33805 0.01985 0.61961 0.0
H2447 H 0.36824 0.00010 0.62887 0.0
C2448 C 0.99384 0.55115 0.29592 0.0
C2449 C 0.99551 0.57183 0.30239 0.0
C2450 C 0.97602 0.53949 0.30134 0.0
C2451 C 0.83605 0.48704 0.35787 0.0
C2452 C 0.83438 0.46636 0.35140 0.0
C2453 C 0.85386 0.49870 0.35245 0.0
H2454 H 0.98093 0.59554 0.31867 0.0
H2455 H 0.95077 0.57572 0.32782 0.0
H2456 H 0.84896 0.44265 0.33512 0.0
H2457 H 0.87912 0.46247 0.32598 0.0
C2458 C 0.97968 0.58105 0.31418 0.0
C2459 C 0.96187 0.56939 0.31960 0.0
C2460 C 0.85021 0.45714 0.33961 0.0
C2461 C 0.86802 0.46880 0.33419 0.0
C2462 C 0.96013 0.54867 0.31315 0.0
C2463 C 0.94044 0.53579 0.31914 0.0
C2464 C 0.92476 0.52552 0.32391 0.0
C2465 C 0.86975 0.48952 0.34064 0.0
C2466 C 0.88944 0.50241 0.33465 0.0
C2467 C 0.90513 0.51267 0.32988 0.0
H2468 H 0.00497 0.54477 0.28767 0.0
H2469 H 0.97475 0.52507 0.29689 0.0
H2470 H 0.82492 0.49343 0.36613 0.0
H2471 H 0.85514 0.51313 0.35691 0.0
C2472 C 0.25221 0.12148 0.55553 0.0
C2473 C 0.25237 0.12445 0.57713 0.0
C2474 C 0.23935 0.13402 0.54290 0.0
C2475 C 0.13622 0.24083 0.48449 0.0
C2476 C 0.13606 0.23785 0.46289 0.0
C2477 C 0.14908 0.22829 0.49712 0.0
H2478 H 0.24007 0.14176 0.60145 0.0
H2479 H 0.21831 0.16297 0.57999 0.0
H2480 H 0.14836 0.22055 0.43857 0.0
H2481 H 0.17013 0.19934 0.46004 0.0
C2482 C 0.23990 0.13974 0.58632 0.0
C2483 C 0.22704 0.15228 0.57369 0.0
C2484 C 0.14853 0.22256 0.45370 0.0
C2485 C 0.16139 0.21003 0.46633 0.0
C2486 C 0.22684 0.14935 0.55205 0.0
C2487 C 0.21263 0.16320 0.53809 0.0
C2488 C 0.20130 0.17425 0.52697 0.0
C2489 C 0.16160 0.21296 0.48797 0.0
C2490 C 0.17581 0.19910 0.50193 0.0
C2491 C 0.18713 0.18806 0.51305 0.0
H2492 H 0.26097 0.11075 0.54917 0.0
H2493 H 0.23916 0.13203 0.52783 0.0
H2494 H 0.12746 0.25155 0.49085 0.0
H2495 H 0.14928 0.23027 0.51219 0.0
C2496 C 0.25347 0.88137 0.05695 0.0
C2497 C 0.24882 0.87512 0.07728 0.0
C2498 C 0.26635 0.86883 0.04427 0.0
C2499 C 0.36074 0.75545 0.98290 0.0
C2500 C 0.36539 0.76170 0.96258 0.0
C2501 C 0.34785 0.76799 0.99558 0.0
H2502 H 0.25353 0.85223 0.09939 0.0
H2503 H 0.27536 0.83103 0.07784 0.0
H2504 H 0.36068 0.78459 0.94047 0.0
H2505 H 0.33885 0.80578 0.96201 0.0
C2506 C 0.25683 0.85654 0.08514 0.0
C2507 C 0.26972 0.84400 0.07246 0.0
C2508 C 0.35738 0.78028 0.95471 0.0
C2509 C 0.34449 0.79282 0.96739 0.0
C2510 C 0.27441 0.85022 0.05209 0.0
C2511 C 0.28865 0.83636 0.03808 0.0
C2512 C 0.30000 0.82532 0.02691 0.0
C2513 C 0.33980 0.78660 0.98776 0.0
C2514 C 0.32555 0.80046 0.00177 0.0
C2515 C 0.31420 0.81150 0.01294 0.0
H2516 H 0.24782 0.89439 0.05152 0.0
H2517 H 0.26966 0.87309 0.03009 0.0
H2518 H 0.36639 0.74243 0.98833 0.0
H2519 H 0.34454 0.76373 0.00977 0.0
C2520 C 0.65499 0.25431 0.52970 0.0
C2521 C 0.63606 0.26215 0.53711 0.0
C2522 C 0.66785 0.26685 0.51707 0.0
C2523 C 0.73345 0.38339 0.43028 0.0
C2524 C 0.75237 0.37555 0.42287 0.0
C2525 C 0.72059 0.37085 0.44290 0.0
H2526 H 0.61650 0.28772 0.53733 0.0
H2527 H 0.63834 0.30891 0.51592 0.0
H2528 H 0.77193 0.34998 0.42265 0.0
H2529 H 0.75009 0.32879 0.44406 0.0
C2530 C 0.62977 0.28230 0.53210 0.0
C2531 C 0.64263 0.29484 0.51947 0.0
C2532 C 0.75867 0.35539 0.42787 0.0
C2533 C 0.74581 0.34286 0.44050 0.0
C2534 C 0.66160 0.28704 0.51203 0.0
C2535 C 0.67581 0.30090 0.49807 0.0
C2536 C 0.68713 0.31194 0.48695 0.0
C2537 C 0.72684 0.35065 0.44795 0.0
C2538 C 0.71263 0.33680 0.46191 0.0
C2539 C 0.70130 0.32575 0.47303 0.0
H2540 H 0.65932 0.24019 0.53325 0.0
H2541 H 0.68106 0.26149 0.51185 0.0
H2542 H 0.72911 0.39751 0.42673 0.0
H2543 H 0.70737 0.37621 0.44812 0.0
C2544 C 0.74298 0.62910 0.94330 0.0
C2545 C 0.74882 0.62488 0.92272 0.0
C2546 C 0.75587 0.64164 0.95598 0.0
C2547 C 0.87122 0.73408 0.01684 0.0
C2548 C 0.86539 0.73830 0.03742 0.0
C2549 C 0.85834 0.72154 0.00416 0.0
H2550 H 0.77132 0.62998 0.90018 0.0
H2551 H 0.79312 0.65122 0.92173 0.0
H2552 H 0.84288 0.73320 0.05997 0.0
H2553 H 0.82109 0.71196 0.03842 0.0
C2554 C 0.76731 0.63298 0.91460 0.0
C2555 C 0.78020 0.64552 0.92728 0.0
C2556 C 0.84690 0.73020 0.04555 0.0
C2557 C 0.83401 0.71766 0.03287 0.0
C2558 C 0.77441 0.64978 0.94791 0.0
C2559 C 0.78865 0.66364 0.96192 0.0
C2560 C 0.80000 0.67468 0.97309 0.0
C2561 C 0.83980 0.71340 0.01224 0.0
C2562 C 0.82555 0.69954 0.99823 0.0
C2563 C 0.81420 0.68850 0.98706 0.0
H2564 H 0.73002 0.62339 0.94892 0.0
H2565 H 0.75191 0.64465 0.97035 0.0
H2566 H 0.88419 0.73979 0.01123 0.0
H2567 H 0.86230 0.71853 0.98980 0.0
C2568 C 0.47459 0.12692 0.22163 0.0
C2569 C 0.46267 0.13570 0.23763 0.0
C2570 C 0.48726 0.13976 0.20912 0.0
C2571 C 0.56535 0.26061 0.14043 0.0
C2572 C 0.57727 0.25183 0.12443 0.0
C2573 C 0.55268 0.24778 0.15294 0.0
H2574 H 0.45481 0.16317 0.25255 0.0
H2575 H 0.47631 0.18486 0.23130 0.0
H2576 H 0.58513 0.22437 0.10951 0.0
H2577 H 0.56363 0.20268 0.13076 0.0
C2578 C 0.46319 0.15710 0.24133 0.0
C2579 C 0.47586 0.16994 0.22881 0.0
C2580 C 0.57675 0.23044 0.12073 0.0
C2581 C 0.56408 0.21760 0.13325 0.0
C2582 C 0.48783 0.16120 0.21277 0.0
C2583 C 0.50183 0.17539 0.19894 0.0
C2584 C 0.51299 0.18670 0.18792 0.0
C2585 C 0.55211 0.22634 0.14929 0.0
C2586 C 0.53811 0.21215 0.16312 0.0
C2587 C 0.52695 0.20084 0.17414 0.0
H2588 H 0.47417 0.11194 0.21910 0.0
H2589 H 0.49562 0.13375 0.19794 0.0
H2590 H 0.56577 0.27560 0.14296 0.0
H2591 H 0.54432 0.25378 0.16412 0.0
C2592 C 0.93360 0.76252 0.61734 0.0
C2593 C 0.92176 0.74692 0.62674 0.0
C2594 C 0.94640 0.77542 0.62974 0.0
C2595 C 0.02567 0.84803 0.74830 0.0
C2596 C 0.03752 0.86362 0.73891 0.0
C2597 C 0.01287 0.83513 0.73590 0.0
H2598 H 0.91415 0.73306 0.65481 0.0
H2599 H 0.93586 0.75496 0.67576 0.0
H2600 H 0.04512 0.87749 0.71083 0.0
H2601 H 0.02341 0.85559 0.68988 0.0
C2602 C 0.92248 0.74400 0.64831 0.0
C2603 C 0.93528 0.75690 0.66071 0.0
C2604 C 0.03679 0.86655 0.71733 0.0
C2605 C 0.02399 0.85364 0.70493 0.0
C2606 C 0.94717 0.77254 0.65136 0.0
C2607 C 0.96132 0.78680 0.66507 0.0
C2608 C 0.97259 0.79817 0.67599 0.0
C2609 C 0.01210 0.83800 0.71428 0.0
C2610 C 0.99796 0.82374 0.70057 0.0
C2611 C 0.98669 0.81238 0.68965 0.0
H2612 H 0.93304 0.76450 0.60223 0.0
H2613 H 0.95470 0.78633 0.62331 0.0
H2614 H 0.02623 0.84605 0.76341 0.0
H2615 H 0.00457 0.82422 0.74233 0.0
C2616 C 0.96461 0.34320 0.75755 0.0
C2617 C 0.96267 0.36430 0.76237 0.0
C2618 C 0.97728 0.33037 0.77007 0.0
C2619 C 0.07533 0.26926 0.88039 0.0
C2620 C 0.07727 0.24817 0.87557 0.0
C2621 C 0.06266 0.28210 0.86787 0.0
H2622 H 0.97176 0.38755 0.78280 0.0
H2623 H 0.99322 0.36574 0.80396 0.0
H2624 H 0.06817 0.22491 0.85514 0.0
H2625 H 0.04672 0.24673 0.83398 0.0
C2626 C 0.97317 0.37277 0.77949 0.0
C2627 C 0.98584 0.35994 0.79200 0.0
C2628 C 0.06676 0.23969 0.85845 0.0
C2629 C 0.05409 0.25252 0.84594 0.0
C2630 C 0.98783 0.33880 0.78723 0.0
C2631 C 0.00183 0.32461 0.80106 0.0
C2632 C 0.01299 0.31330 0.81208 0.0
C2633 C 0.05211 0.27366 0.85071 0.0
C2634 C 0.03811 0.28785 0.83688 0.0
C2635 C 0.02695 0.29916 0.82586 0.0
H2636 H 0.95722 0.33734 0.74555 0.0
H2637 H 0.97871 0.31565 0.76680 0.0
H2638 H 0.08272 0.27512 0.89239 0.0
H2639 H 0.06123 0.29681 0.87114 0.0
C2640 C 0.54009 0.65791 0.26042 0.0
C2641 C 0.53752 0.63638 0.26109 0.0
C2642 C 0.52730 0.67081 0.27282 0.0
C2643 C 0.41918 0.73154 0.37394 0.0
C2644 C 0.42176 0.75308 0.37326 0.0
C2645 C 0.43197 0.71864 0.36154 0.0
H2646 H 0.52062 0.61242 0.27436 0.0
H2647 H 0.49897 0.63435 0.29535 0.0
H2648 H 0.43865 0.77703 0.36000 0.0
H2649 H 0.46030 0.75510 0.33901 0.0
C2650 C 0.52236 0.62751 0.27395 0.0
C2651 C 0.50957 0.64041 0.28635 0.0
C2652 C 0.43691 0.76194 0.36041 0.0
C2653 C 0.44970 0.74904 0.34801 0.0
C2654 C 0.51210 0.66200 0.28572 0.0
C2655 C 0.49796 0.67626 0.29943 0.0
C2656 C 0.48669 0.68762 0.31035 0.0
C2657 C 0.44717 0.72746 0.34864 0.0
C2658 C 0.46132 0.71320 0.33493 0.0
C2659 C 0.47259 0.70183 0.32401 0.0
H2660 H 0.55073 0.66404 0.25139 0.0
H2661 H 0.52900 0.68584 0.27244 0.0
H2662 H 0.40855 0.72541 0.38296 0.0
H2663 H 0.43027 0.70361 0.36192 0.0
C2664 C 0.11465 0.55872 0.24327 0.0
C2665 C 0.12329 0.57591 0.25343 0.0
C2666 C 0.12729 0.54620 0.23032 0.0
C2667 C 0.24631 0.47987 0.14651 0.0
C2668 C 0.23767 0.46268 0.13635 0.0
C2669 C 0.23367 0.49239 0.15946 0.0
H2670 H 0.15033 0.59286 0.25803 0.0
H2671 H 0.17170 0.57160 0.23608 0.0
H2672 H 0.21063 0.44573 0.13175 0.0
H2673 H 0.18926 0.46699 0.15370 0.0
C2674 C 0.14436 0.58080 0.25088 0.0
C2675 C 0.15700 0.56828 0.23794 0.0
C2676 C 0.21660 0.45779 0.13890 0.0
C2677 C 0.20396 0.47031 0.15184 0.0
C2678 C 0.14840 0.55105 0.22773 0.0
C2679 C 0.16238 0.53721 0.21342 0.0
C2680 C 0.17351 0.52619 0.20202 0.0
C2681 C 0.21256 0.48754 0.16205 0.0
C2682 C 0.19858 0.50137 0.17636 0.0
C2683 C 0.18745 0.51240 0.18776 0.0
H2684 H 0.09989 0.55536 0.24510 0.0
H2685 H 0.12138 0.53419 0.22318 0.0
H2686 H 0.26107 0.48323 0.14468 0.0
H2687 H 0.23958 0.50440 0.16660 0.0
C2688 C 0.61488 0.93297 0.76462 0.0
C2689 C 0.62329 0.92409 0.74657 0.0
C2690 C 0.62752 0.94548 0.77756 0.0
C2691 C 0.74608 0.02845 0.84560 0.0
C2692 C 0.73767 0.03732 0.86365 0.0
C2693 C 0.73344 0.01593 0.83266 0.0
H2694 H 0.64994 0.92127 0.72858 0.0
H2695 H 0.67131 0.94249 0.75056 0.0
H2696 H 0.71102 0.04014 0.88164 0.0
H2697 H 0.68965 0.01892 0.85966 0.0
C2698 C 0.64413 0.92752 0.74124 0.0
C2699 C 0.65677 0.94003 0.75418 0.0
C2700 C 0.71683 0.03390 0.86898 0.0
C2701 C 0.70419 0.02138 0.85604 0.0
C2702 C 0.64840 0.94895 0.77227 0.0
C2703 C 0.66238 0.96279 0.78658 0.0
C2704 C 0.67351 0.97381 0.79798 0.0
C2705 C 0.71256 0.01246 0.83795 0.0
C2706 C 0.69858 0.99863 0.82364 0.0
C2707 C 0.68745 0.98760 0.81224 0.0
H2708 H 0.60028 0.93052 0.76828 0.0
H2709 H 0.62177 0.95172 0.79017 0.0
H2710 H 0.76068 0.03089 0.84194 0.0
H2711 H 0.73919 0.00969 0.82005 0.0
C2712 C 0.77051 0.95504 0.34478 0.0
C2713 C 0.76272 0.96295 0.36354 0.0
C2714 C 0.78304 0.96770 0.33194 0.0
C2715 C 0.86824 0.08536 0.26617 0.0
C2716 C 0.87603 0.07745 0.24741 0.0
C2717 C 0.85572 0.07270 0.27901 0.0
H2718 H 0.76175 0.98876 0.38285 0.0
H2719 H 0.78299 0.01016 0.36104 0.0
H2720 H 0.87700 0.05163 0.22810 0.0
H2721 H 0.85577 0.03024 0.24991 0.0
C2722 C 0.76724 0.98330 0.36970 0.0
C2723 C 0.77977 0.99596 0.35686 0.0
C2724 C 0.87151 0.05710 0.24126 0.0
C2725 C 0.85898 0.04444 0.25409 0.0
C2726 C 0.78760 0.98809 0.33805 0.0
C2727 C 0.80144 0.00208 0.32386 0.0
C2728 C 0.81248 0.01323 0.31255 0.0
C2729 C 0.85115 0.05231 0.27291 0.0
C2730 C 0.83731 0.03832 0.28710 0.0
C2731 C 0.82628 0.02717 0.29840 0.0
H2732 H 0.76730 0.94078 0.34054 0.0
H2733 H 0.78852 0.96229 0.31883 0.0
H2734 H 0.87145 0.09962 0.27041 0.0
H2735 H 0.85023 0.07811 0.29212 0.0
C2736 C 0.26711 0.54330 0.65688 0.0
C2737 C 0.26272 0.53705 0.63646 0.0
C2738 C 0.27963 0.53064 0.66972 0.0
C2739 C 0.37164 0.41630 0.73217 0.0
C2740 C 0.37603 0.42255 0.75259 0.0
C2741 C 0.35912 0.42896 0.71933 0.0
H2742 H 0.26753 0.51406 0.61433 0.0
H2743 H 0.28875 0.49266 0.63615 0.0
H2744 H 0.37122 0.44554 0.77472 0.0
H2745 H 0.35000 0.46694 0.75290 0.0
C2746 C 0.27064 0.51836 0.62864 0.0
C2747 C 0.28317 0.50571 0.64148 0.0
C2748 C 0.36811 0.44124 0.76040 0.0
C2749 C 0.35558 0.45390 0.74757 0.0
C2750 C 0.28760 0.51191 0.66195 0.0
C2751 C 0.30144 0.49792 0.67614 0.0
C2752 C 0.31248 0.48677 0.68745 0.0
C2753 C 0.35115 0.44769 0.72709 0.0
C2754 C 0.33731 0.46168 0.71290 0.0
C2755 C 0.32628 0.47283 0.70160 0.0
H2756 H 0.26152 0.55640 0.66228 0.0
H2757 H 0.28276 0.53489 0.68398 0.0
H2758 H 0.37723 0.40320 0.72677 0.0
H2759 H 0.35599 0.42471 0.70507 0.0
C2760 C 0.87149 0.77481 0.52360 0.0
C2761 C 0.86233 0.76208 0.53865 0.0
C2762 C 0.85879 0.78733 0.51080 0.0
C2763 C 0.73831 0.86268 0.43791 0.0
C2764 C 0.74747 0.87540 0.42286 0.0
C2765 C 0.75100 0.85015 0.45071 0.0
H2766 H 0.83435 0.75273 0.55168 0.0
H2767 H 0.81289 0.77399 0.52995 0.0
H2768 H 0.77544 0.88475 0.40983 0.0
H2769 H 0.79690 0.86349 0.43156 0.0
C2770 C 0.84069 0.76167 0.54112 0.0
C2771 C 0.82799 0.77420 0.52832 0.0
C2772 C 0.76910 0.87581 0.42039 0.0
C2773 C 0.78180 0.86329 0.43319 0.0
C2774 C 0.83711 0.78696 0.51323 0.0
C2775 C 0.82307 0.80081 0.49908 0.0
C2776 C 0.81189 0.81184 0.48781 0.0
C2777 C 0.77268 0.85052 0.44828 0.0
C2778 C 0.78672 0.83668 0.46243 0.0
C2779 C 0.79790 0.82564 0.47370 0.0
H2780 H 0.88665 0.77504 0.52193 0.0
H2781 H 0.86506 0.79624 0.50027 0.0
H2782 H 0.72315 0.86245 0.43958 0.0
H2783 H 0.74473 0.84124 0.46124 0.0
C2784 C 0.62934 0.23140 0.01732 0.0
C2785 C 0.63553 0.23624 0.03766 0.0
C2786 C 0.64231 0.21900 0.00459 0.0
C2787 C 0.75905 0.12891 0.94284 0.0
C2788 C 0.75286 0.12407 0.92250 0.0
C2789 C 0.74608 0.14131 0.95557 0.0
H2790 H 0.65872 0.23231 0.05975 0.0
H2791 H 0.68065 0.21131 0.03812 0.0
H2792 H 0.72967 0.12800 0.90041 0.0
H2793 H 0.70774 0.14900 0.92204 0.0
C2794 C 0.65446 0.22889 0.04550 0.0
C2795 C 0.66743 0.21649 0.03276 0.0
C2796 C 0.73393 0.13142 0.91466 0.0
C2797 C 0.72096 0.14382 0.92740 0.0
C2798 C 0.66129 0.21161 0.01238 0.0
C2799 C 0.67563 0.19791 0.99831 0.0
C2800 C 0.68705 0.18699 0.98709 0.0
C2801 C 0.72710 0.14870 0.94778 0.0
C2802 C 0.71276 0.16240 0.96185 0.0
C2803 C 0.70134 0.17332 0.97307 0.0
H2804 H 0.61607 0.23659 0.01191 0.0
H2805 H 0.63811 0.21557 0.99039 0.0
H2806 H 0.77232 0.12372 0.94825 0.0
H2807 H 0.75029 0.14474 0.96977 0.0
C2808 C 0.26915 0.62298 0.57846 0.0
C2809 C 0.24747 0.62460 0.57714 0.0
C2810 C 0.28185 0.63551 0.56566 0.0
C2811 C 0.34064 0.73953 0.46003 0.0
C2812 C 0.36233 0.73792 0.46135 0.0
C2813 C 0.32795 0.72701 0.47283 0.0
H2814 H 0.22307 0.63960 0.56236 0.0
H2815 H 0.24465 0.66080 0.54070 0.0
H2816 H 0.38672 0.72291 0.47613 0.0
H2817 H 0.36514 0.70172 0.49779 0.0
C2818 C 0.23826 0.63853 0.56323 0.0
C2819 C 0.25096 0.65105 0.55043 0.0
C2820 C 0.37153 0.72399 0.47526 0.0
C2821 C 0.35883 0.71146 0.48806 0.0
C2822 C 0.27268 0.64948 0.55172 0.0
C2823 C 0.28672 0.66332 0.53757 0.0
C2824 C 0.29790 0.67436 0.52630 0.0
C2825 C 0.33711 0.71304 0.48677 0.0
C2826 C 0.32307 0.69919 0.50092 0.0
C2827 C 0.31189 0.68816 0.51219 0.0
H2828 H 0.27552 0.61320 0.58822 0.0
H2829 H 0.29697 0.63447 0.56650 0.0
H2830 H 0.33428 0.74931 0.45026 0.0
H2831 H 0.31282 0.72805 0.47199 0.0
C2832 C 0.23905 0.36188 0.08668 0.0
C2833 C 0.25286 0.37593 0.07750 0.0
C2834 C 0.22608 0.34948 0.07394 0.0
C2835 C 0.14934 0.27782 0.95317 0.0
C2836 C 0.13553 0.26376 0.96234 0.0
C2837 C 0.16231 0.29021 0.96590 0.0
H2838 H 0.26362 0.38766 0.04947 0.0
H2839 H 0.24161 0.36661 0.02796 0.0
H2840 H 0.12477 0.25203 0.99037 0.0
H2841 H 0.14678 0.27308 0.01188 0.0
C2842 C 0.25393 0.37780 0.05582 0.0
C2843 C 0.24095 0.36540 0.04309 0.0
C2844 C 0.13447 0.26189 0.98402 0.0
C2845 C 0.14744 0.27429 0.99675 0.0
C2846 C 0.22710 0.35130 0.05222 0.0
C2847 C 0.21276 0.33760 0.03815 0.0
C2848 C 0.20134 0.32668 0.02693 0.0
C2849 C 0.16129 0.28839 0.98762 0.0
C2850 C 0.17563 0.30209 0.00169 0.0
C2851 C 0.18705 0.31301 0.01291 0.0
H2852 H 0.23837 0.36063 0.10187 0.0
H2853 H 0.21642 0.33964 0.08023 0.0
H2854 H 0.15002 0.27906 0.93797 0.0
H2855 H 0.17198 0.30005 0.95961 0.0
C2856 C 0.51760 0.85673 0.75367 0.0
C2857 C 0.53586 0.86535 0.76183 0.0
C2858 C 0.50519 0.84368 0.76622 0.0
C2859 C 0.44182 0.75592 0.88349 0.0
C2860 C 0.42356 0.74730 0.87532 0.0
C2861 C 0.45424 0.76897 0.87094 0.0
H2862 H 0.55473 0.86723 0.78797 0.0
H2863 H 0.53364 0.84510 0.80917 0.0
H2864 H 0.40470 0.74542 0.84919 0.0
H2865 H 0.42579 0.76755 0.82799 0.0
C2866 C 0.54193 0.86115 0.78233 0.0
C2867 C 0.52951 0.84810 0.79487 0.0
C2868 C 0.41750 0.75150 0.85483 0.0
C2869 C 0.42991 0.76455 0.84229 0.0
C2870 C 0.51121 0.83943 0.78675 0.0
C2871 C 0.49749 0.82501 0.80062 0.0
C2872 C 0.48655 0.81351 0.81167 0.0
C2873 C 0.44822 0.77322 0.85041 0.0
C2874 C 0.46194 0.78764 0.83654 0.0
C2875 C 0.47287 0.79914 0.82549 0.0
H2876 H 0.51343 0.85972 0.73931 0.0
H2877 H 0.49244 0.83761 0.76063 0.0
H2878 H 0.44600 0.75293 0.89785 0.0
H2879 H 0.46699 0.77504 0.87652 0.0
C2880 C 0.97306 0.15345 0.25360 0.0
C2881 C 0.96319 0.13623 0.26240 0.0
C2882 C 0.98571 0.16634 0.26616 0.0
C2883 C 0.06779 0.23562 0.38479 0.0
C2884 C 0.07766 0.25284 0.37599 0.0
C2885 C 0.05514 0.22273 0.37223 0.0
H2886 H 0.95881 0.11960 0.28963 0.0
H2887 H 0.98027 0.14149 0.31085 0.0
H2888 H 0.08204 0.26947 0.34876 0.0
H2889 H 0.06058 0.24758 0.32754 0.0
C2890 C 0.96576 0.13167 0.28354 0.0
C2891 C 0.97841 0.14456 0.29610 0.0
C2892 C 0.07510 0.25740 0.35485 0.0
C2893 C 0.06244 0.24450 0.34229 0.0
C2894 C 0.98832 0.16183 0.28734 0.0
C2895 C 0.00231 0.17608 0.30122 0.0
C2896 C 0.01345 0.18743 0.31228 0.0
C2897 C 0.05253 0.22724 0.35105 0.0
C2898 C 0.03854 0.21299 0.33717 0.0
C2899 C 0.02740 0.20164 0.32611 0.0
H2900 H 0.97121 0.15657 0.23879 0.0
H2901 H 0.99264 0.17837 0.26013 0.0
H2902 H 0.06964 0.23250 0.39960 0.0
H2903 H 0.04821 0.21070 0.37826 0.0
C2904 C 0.04095 0.63745 0.21717 0.0
C2905 C 0.03586 0.63465 0.23817 0.0
C2906 C 0.02854 0.65050 0.20462 0.0
C2907 C 0.91847 0.74990 0.14567 0.0
C2908 C 0.92356 0.75270 0.12468 0.0
C2909 C 0.93089 0.73685 0.15822 0.0
H2910 H 0.01508 0.64265 0.26154 0.0
H2911 H 0.99408 0.66475 0.24022 0.0
H2912 H 0.94435 0.74470 0.10130 0.0
H2913 H 0.96534 0.72259 0.12262 0.0
C2914 C 0.01857 0.64467 0.24683 0.0
C2915 C 0.00616 0.65772 0.23429 0.0
C2916 C 0.94085 0.74268 0.11601 0.0
C2917 C 0.95326 0.72963 0.12855 0.0
C2918 C 0.01121 0.66057 0.21325 0.0
C2919 C 0.99749 0.67499 0.19938 0.0
C2920 C 0.98655 0.68649 0.18833 0.0
C2921 C 0.94822 0.72678 0.14959 0.0
C2922 C 0.96194 0.71236 0.16346 0.0
C2923 C 0.97287 0.70086 0.17451 0.0
H2924 H 0.05307 0.63040 0.21118 0.0
H2925 H 0.03199 0.65253 0.18997 0.0
H2926 H 0.90635 0.75695 0.15166 0.0
H2927 H 0.92744 0.73482 0.17287 0.0
C2928 C 0.45399 0.34856 0.72501 0.0
C2929 C 0.46319 0.36377 0.73760 0.0
C2930 C 0.46665 0.33567 0.71246 0.0
C2931 C 0.58686 0.26237 0.63660 0.0
C2932 C 0.57766 0.24716 0.62401 0.0
C2933 C 0.57420 0.27526 0.64915 0.0
H2934 H 0.49118 0.37699 0.74668 0.0
H2935 H 0.51257 0.35510 0.72537 0.0
H2936 H 0.54967 0.23394 0.61493 0.0
H2937 H 0.52828 0.25583 0.63624 0.0
C2938 C 0.48482 0.36632 0.73784 0.0
C2939 C 0.49748 0.35342 0.72529 0.0
C2940 C 0.55603 0.24462 0.62377 0.0
C2941 C 0.54338 0.25751 0.63633 0.0
C2942 C 0.48832 0.33817 0.71266 0.0
C2943 C 0.50231 0.32392 0.69878 0.0
C2944 C 0.51345 0.31257 0.68772 0.0
C2945 C 0.55253 0.27276 0.64895 0.0
C2946 C 0.53854 0.28701 0.66283 0.0
C2947 C 0.52740 0.29836 0.67389 0.0
H2948 H 0.43884 0.34685 0.72490 0.0
H2949 H 0.46035 0.32504 0.70365 0.0
H2950 H 0.60201 0.26408 0.63671 0.0
H2951 H 0.58050 0.28590 0.65796 0.0
C2952 C 0.75611 0.52958 0.84479 0.0
C2953 C 0.76400 0.53670 0.86383 0.0
C2954 C 0.76857 0.51685 0.83187 0.0
C2955 C 0.88452 0.42866 0.76599 0.0
C2956 C 0.87663 0.42154 0.74695 0.0
C2957 C 0.87207 0.44139 0.77891 0.0
H2958 H 0.78957 0.53634 0.88352 0.0
H2959 H 0.81061 0.51476 0.86157 0.0
H2960 H 0.85107 0.42190 0.72726 0.0
H2961 H 0.83002 0.44348 0.74921 0.0
C2962 C 0.78412 0.53132 0.87017 0.0
C2963 C 0.79657 0.51858 0.85725 0.0
C2964 C 0.85651 0.42693 0.74061 0.0
C2965 C 0.84406 0.43966 0.75353 0.0
C2966 C 0.78873 0.51142 0.83817 0.0
C2967 C 0.80249 0.49735 0.82389 0.0
C2968 C 0.81346 0.48614 0.81251 0.0
C2969 C 0.85190 0.44682 0.77261 0.0
C2970 C 0.83814 0.46090 0.78689 0.0
C2971 C 0.82718 0.47211 0.79827 0.0
H2972 H 0.74202 0.53340 0.84042 0.0
H2973 H 0.76318 0.51183 0.81857 0.0
H2974 H 0.89862 0.42484 0.77036 0.0
H2975 H 0.87746 0.44642 0.79221 0.0
C2976 C 0.25482 0.97435 0.15256 0.0
C2977 C 0.26400 0.96330 0.13617 0.0
C2978 C 0.26727 0.98708 0.16548 0.0
C2979 C 0.38582 0.06741 0.23666 0.0
C2980 C 0.37663 0.07846 0.25305 0.0
C2981 C 0.37336 0.05468 0.22374 0.0
H2982 H 0.29177 0.95698 0.12098 0.0
H2983 H 0.31281 0.97858 0.14292 0.0
H2984 H 0.34886 0.08477 0.26824 0.0
H2985 H 0.32782 0.06318 0.24630 0.0
C2986 C 0.28542 0.96475 0.13248 0.0
C2987 C 0.29787 0.97748 0.14540 0.0
C2988 C 0.35522 0.07700 0.25674 0.0
C2989 C 0.34276 0.06427 0.24382 0.0
C2990 C 0.28873 0.98858 0.16183 0.0
C2991 C 0.30249 0.00265 0.17611 0.0
C2992 C 0.31346 0.01386 0.18749 0.0
C2993 C 0.35190 0.05318 0.22739 0.0
C2994 C 0.33814 0.03910 0.21311 0.0
C2995 C 0.32718 0.02789 0.20173 0.0
H2996 H 0.23981 0.97327 0.15508 0.0
H2997 H 0.26098 0.99483 0.17694 0.0
H2998 H 0.40082 0.06848 0.23414 0.0
H2999 H 0.37965 0.04692 0.21228 0.0
C3000 C 0.24384 0.03255 0.65600 0.0
C3001 C 0.23685 0.03743 0.63596 0.0
C3002 C 0.23150 0.01989 0.66902 0.0
C3003 C 0.11831 0.92779 0.73371 0.0
C3004 C 0.12530 0.92291 0.75375 0.0
C3005 C 0.13065 0.94045 0.72069 0.0
H3006 H 0.21293 0.03333 0.61467 0.0
H3007 H 0.19209 0.01188 0.63679 0.0
H3008 H 0.14921 0.92701 0.77504 0.0
H3009 H 0.17006 0.94846 0.75292 0.0
C3010 C 0.21775 0.02987 0.62871 0.0
C3011 C 0.20542 0.01721 0.64173 0.0
C3012 C 0.14440 0.93047 0.76099 0.0
C3013 C 0.15673 0.94313 0.74797 0.0
C3014 C 0.21236 0.01229 0.66182 0.0
C3015 C 0.19873 0.99829 0.67621 0.0
C3016 C 0.18787 0.98714 0.68768 0.0
C3017 C 0.14979 0.94805 0.72789 0.0
C3018 C 0.16342 0.96204 0.71350 0.0
C3019 C 0.17428 0.97319 0.70203 0.0
H3020 H 0.25722 0.03788 0.66100 0.0
H3021 H 0.23627 0.01642 0.68301 0.0
H3022 H 0.10493 0.92245 0.72871 0.0
H3023 H 0.12588 0.94391 0.70670 0.0
C3024 C 0.64645 0.57436 0.24181 0.0
C3025 C 0.62530 0.57709 0.24625 0.0
C3026 C 0.65878 0.56170 0.25483 0.0
C3027 C 0.71570 0.46530 0.36849 0.0
C3028 C 0.73685 0.46257 0.36404 0.0
C3029 C 0.70337 0.47796 0.35546 0.0
H3030 H 0.60145 0.56934 0.26653 0.0
H3031 H 0.62241 0.54790 0.28856 0.0
H3032 H 0.76070 0.47032 0.34376 0.0
H3033 H 0.73974 0.49176 0.32174 0.0
C3034 C 0.61626 0.56738 0.26349 0.0
C3035 C 0.62860 0.55472 0.27651 0.0
C3036 C 0.74589 0.47228 0.34680 0.0
C3037 C 0.73355 0.48494 0.33378 0.0
C3038 C 0.64979 0.55195 0.27211 0.0
C3039 C 0.66342 0.53796 0.28650 0.0
C3040 C 0.67428 0.52681 0.29797 0.0
C3041 C 0.71236 0.48771 0.33818 0.0
C3042 C 0.69873 0.50171 0.32379 0.0
C3043 C 0.68787 0.51286 0.31232 0.0
H3044 H 0.65270 0.58120 0.22972 0.0
H3045 H 0.67353 0.55973 0.25183 0.0
H3046 H 0.70945 0.45847 0.38058 0.0
H3047 H 0.68861 0.47994 0.35846 0.0
loop_
_geom_bond_atom_site_label_1
_geom_bond_atom_site_label_2
_geom_bond_distance
_geom_bond_site_symmetry_2
_ccdc_geom_bond_type
C0 O27 1.312 . S
C0 O28 1.208 . S
C1 O22 1.331 . S
C1 O25 1.244 . S
C2 O24 1.264 . S
C2 O26 1.273 . S
Mg3 O5 1.936 . S
Mg3 O12 2.081 . S
Mg3 O14 2.023 . S
Mg3 O18 2.031 . S
Mg3 O27 2.291 . S
Mg4 O5 1.963 . S
Mg4 O15 1.942 . S
Mg4 O16 1.955 . S
Mg4 O23 1.986 . S
O5 Mg3 1.936 . S
O5 Mg4 1.963 . S
O5 Mg6 1.915 . S
Mg6 O5 1.915 . S
Mg6 O7 1.915 . S
Mg6 O11 2.013 . S
Mg6 O17 2.114 . S
Mg6 O21 2.013 . S
Mg6 O27 2.114 . S
O7 Mg6 1.915 . S
O7 Mg8 1.936 . S
O7 Mg9 1.963 . S
Mg8 O7 1.936 . S
Mg8 O17 2.291 . S
Mg8 O22 2.081 . S
Mg8 O24 2.023 . S
Mg8 O28 2.031 . S
Mg9 O7 1.963 . S
Mg9 O13 1.986 . S
Mg9 O25 1.942 . S
Mg9 O26 1.955 . S
C10 O21 1.191 . S
C10 O23 1.307 . S
O11 Mg6 2.013 . S
O11 C30 1.191 . S
O12 Mg3 2.081 . S
O12 C20 1.331 . S
O13 Mg9 1.986 . S
O13 C30 1.307 . S
O14 Mg3 2.023 . S
O14 C29 1.264 . S
O15 Mg4 1.942 . S
O15 C20 1.244 . S
O16 Mg4 1.955 . S
O16 C29 1.273 . S
O17 Mg6 2.114 . S
O17 Mg8 2.291 . S
O17 C19 1.312 . S
O18 Mg3 2.031 . S
O18 C19 1.208 . S
C19 O17 1.312 . S
C19 O18 1.208 . S
C20 O12 1.331 . S
C20 O15 1.244 . S
O21 Mg6 2.013 . S
O21 C10 1.191 . S
O22 C1 1.331 . S
O22 Mg8 2.081 . S
O23 Mg4 1.986 . S
O23 C10 1.307 . S
O24 C2 1.264 . S
O24 Mg8 2.023 . S
O25 C1 1.244 . S
O25 Mg9 1.942 . S
O26 C2 1.273 . S
O26 Mg9 1.955 . S
O27 C0 1.312 . S
O27 Mg3 2.291 . S
O27 Mg6 2.114 . S
O28 C0 1.208 . S
O28 Mg8 2.031 . S
C29 O14 1.264 . S
C29 O16 1.273 . S
C30 O11 1.191 . S
C30 O13 1.307 . S
C31 O58 1.312 . S
C31 O59 1.208 . S
C32 O53 1.331 . S
C32 O56 1.244 . S
C33 O55 1.264 . S
C33 O57 1.273 . S
Mg34 O36 1.936 . S
Mg34 O43 2.081 . S
Mg34 O45 2.023 . S
Mg34 O49 2.031 . S
Mg34 O58 2.291 . S
Mg35 O36 1.963 . S
Mg35 O46 1.942 . S
Mg35 O47 1.955 . S
Mg35 O54 1.986 . S
O36 Mg34 1.936 . S
O36 Mg35 1.963 . S
O36 Mg37 1.915 . S
Mg37 O36 1.915 . S
Mg37 O38 1.915 . S
Mg37 O42 2.013 . S
Mg37 O48 2.114 . S
Mg37 O52 2.013 . S
Mg37 O58 2.114 . S
O38 Mg37 1.915 . S
O38 Mg39 1.936 . S
O38 Mg40 1.963 . S
Mg39 O38 1.936 . S
Mg39 O48 2.291 . S
Mg39 O53 2.081 . S
Mg39 O55 2.023 . S
Mg39 O59 2.031 . S
Mg40 O38 1.963 . S
Mg40 O44 1.986 . S
Mg40 O56 1.942 . S
Mg40 O57 1.955 . S
C41 O52 1.191 . S
C41 O54 1.307 . S
O42 Mg37 2.013 . S
O42 C61 1.191 . S
O43 Mg34 2.081 . S
O43 C51 1.331 . S
O44 Mg40 1.986 . S
O44 C61 1.307 . S
O45 Mg34 2.023 . S
O45 C60 1.264 . S
O46 Mg35 1.942 . S
O46 C51 1.244 . S
O47 Mg35 1.955 . S
O47 C60 1.273 . S
O48 Mg37 2.114 . S
O48 Mg39 2.291 . S
O48 C50 1.312 . S
O49 Mg34 2.031 . S
O49 C50 1.208 . S
C50 O48 1.312 . S
C50 O49 1.208 . S
C51 O43 1.331 . S
C51 O46 1.244 . S
O52 Mg37 2.013 . S
O52 C41 1.191 . S
O53 C32 1.331 . S
O53 Mg39 2.081 . S
O54 Mg35 1.986 . S
O54 C41 1.307 . S
O55 C33 1.264 . S
O55 Mg39 2.023 . S
O56 C32 1.244 . S
O56 Mg40 1.942 . S
O57 C33 1.273 . S
O57 Mg40 1.955 . S
O58 C31 1.312 . S
O58 Mg34 2.291 . S
O58 Mg37 2.114 . S
O59 C31 1.208 . S
O59 Mg39 2.031 . S
C60 O45 1.264 . S
C60 O47 1.273 . S
C61 O42 1.191 . S
C61 O44 1.307 . S
C62 O89 1.312 . S
C62 O90 1.208 . S
C63 O84 1.331 . S
C63 O87 1.244 . S
C64 O86 1.264 . S
C64 O88 1.273 . S
Mg65 O67 1.936 . S
Mg65 O74 2.081 . S
Mg65 O76 2.023 . S
Mg65 O80 2.031 . S
Mg65 O89 2.291 . S
Mg66 O67 1.963 . S
Mg66 O77 1.942 . S
Mg66 O78 1.955 . S
Mg66 O85 1.986 . S
O67 Mg65 1.936 . S
O67 Mg66 1.963 . S
O67 Mg68 1.915 . S
Mg68 O67 1.915 . S
Mg68 O69 1.915 . S
Mg68 O73 2.013 . S
Mg68 O79 2.114 . S
Mg68 O83 2.013 . S
Mg68 O89 2.114 . S
O69 Mg68 1.915 . S
O69 Mg70 1.936 . S
O69 Mg71 1.963 . S
Mg70 O69 1.936 . S
Mg70 O79 2.291 . S
Mg70 O84 2.081 . S
Mg70 O86 2.023 . S
Mg70 O90 2.031 . S
Mg71 O69 1.963 . S
Mg71 O75 1.986 . S
Mg71 O87 1.942 . S
Mg71 O88 1.955 . S
C72 O83 1.191 . S
C72 O85 1.307 . S
O73 Mg68 2.013 . S
O73 C92 1.191 . S
O74 Mg65 2.081 . S
O74 C82 1.331 . S
O75 Mg71 1.986 . S
O75 C92 1.307 . S
O76 Mg65 2.023 . S
O76 C91 1.264 . S
O77 Mg66 1.942 . S
O77 C82 1.244 . S
O78 Mg66 1.955 . S
O78 C91 1.273 . S
O79 Mg68 2.114 . S
O79 Mg70 2.291 . S
O79 C81 1.312 . S
O80 Mg65 2.031 . S
O80 C81 1.208 . S
C81 O79 1.312 . S
C81 O80 1.208 . S
C82 O74 1.331 . S
C82 O77 1.244 . S
O83 Mg68 2.013 . S
O83 C72 1.191 . S
O84 C63 1.331 . S
O84 Mg70 2.081 . S
O85 Mg66 1.986 . S
O85 C72 1.307 . S
O86 C64 1.264 . S
O86 Mg70 2.023 . S
O87 C63 1.244 . S
O87 Mg71 1.942 . S
O88 C64 1.273 . S
O88 Mg71 1.955 . S
O89 C62 1.312 . S
O89 Mg65 2.291 . S
O89 Mg68 2.114 . S
O90 C62 1.208 . S
O90 Mg70 2.031 . S
C91 O76 1.264 . S
C91 O78 1.273 . S
C92 O73 1.191 . S
C92 O75 1.307 . S
C93 O120 1.312 . S
C93 O121 1.208 . S
C94 O115 1.331 . S
C94 O118 1.244 . S
C95 O117 1.264 . S
C95 O119 1.273 . S
Mg96 O98 1.936 . S
Mg96 O105 2.081 . S
Mg96 O107 2.023 . S
Mg96 O111 2.031 . S
Mg96 O120 2.291 . S
Mg97 O98 1.963 . S
Mg97 O108 1.942 . S
Mg97 O109 1.955 . S
Mg97 O116 1.986 . S
O98 Mg96 1.936 . S
O98 Mg97 1.963 . S
O98 Mg99 1.915 . S
Mg99 O98 1.915 . S
Mg99 O100 1.915 . S
Mg99 O104 2.013 . S
Mg99 O110 2.114 . S
Mg99 O114 2.013 . S
Mg99 O120 2.114 . S
O100 Mg99 1.915 . S
O100 Mg101 1.936 . S
O100 Mg102 1.963 . S
Mg101 O100 1.936 . S
Mg101 O110 2.291 . S
Mg101 O115 2.081 . S
Mg101 O117 2.023 . S
Mg101 O121 2.031 . S
Mg102 O100 1.963 . S
Mg102 O106 1.986 . S
Mg102 O118 1.942 . S
Mg102 O119 1.955 . S
C103 O114 1.191 . S
C103 O116 1.307 . S
O104 Mg99 2.013 . S
O104 C123 1.191 . S
O105 Mg96 2.081 . S
O105 C113 1.331 . S
O106 Mg102 1.986 . S
O106 C123 1.307 . S
O107 Mg96 2.023 . S
O107 C122 1.264 . S
O108 Mg97 1.942 . S
O108 C113 1.244 . S
O109 Mg97 1.955 . S
O109 C122 1.273 . S
O110 Mg99 2.114 . S
O110 Mg101 2.291 . S
O110 C112 1.312 . S
O111 Mg96 2.031 . S
O111 C112 1.208 . S
C112 O110 1.312 . S
C112 O111 1.208 . S
C113 O105 1.331 . S
C113 O108 1.244 . S
O114 Mg99 2.013 . S
O114 C103 1.191 . S
O115 C94 1.331 . S
O115 Mg101 2.081 . S
O116 Mg97 1.986 . S
O116 C103 1.307 . S
O117 C95 1.264 . S
O117 Mg101 2.023 . S
O118 C94 1.244 . S
O118 Mg102 1.942 . S
O119 C95 1.273 . S
O119 Mg102 1.955 . S
O120 C93 1.312 . S
O120 Mg96 2.291 . S
O120 Mg99 2.114 . S
O121 C93 1.208 . S
O121 Mg101 2.031 . S
C122 O107 1.264 . S
C122 O109 1.273 . S
C123 O104 1.191 . S
C123 O106 1.307 . S
C124 O151 1.312 . S
C124 O152 1.208 . S
C125 O146 1.331 . S
C125 O149 1.244 . S
C126 O148 1.264 . S
C126 O150 1.273 . S
Mg127 O129 1.936 . S
Mg127 O136 2.081 . S
Mg127 O138 2.023 . S
Mg127 O142 2.031 . S
Mg127 O151 2.291 . S
Mg128 O129 1.963 . S
Mg128 O139 1.942 . S
Mg128 O140 1.955 . S
Mg128 O147 1.986 . S
O129 Mg127 1.936 . S
O129 Mg128 1.963 . S
O129 Mg130 1.915 . S
Mg130 O129 1.915 . S
Mg130 O131 1.915 . S
Mg130 O135 2.013 . S
Mg130 O141 2.114 . S
Mg130 O145 2.013 . S
Mg130 O151 2.114 . S
O131 Mg130 1.915 . S
O131 Mg132 1.936 . S
O131 Mg133 1.963 . S
Mg132 O131 1.936 . S
Mg132 O141 2.291 . S
Mg132 O146 2.081 . S
Mg132 O148 2.023 . S
Mg132 O152 2.031 . S
Mg133 O131 1.963 . S
Mg133 O137 1.986 . S
Mg133 O149 1.942 . S
Mg133 O150 1.955 . S
C134 O145 1.191 . S
C134 O147 1.307 . S
O135 Mg130 2.013 . S
O135 C154 1.191 . S
O136 Mg127 2.081 . S
O136 C144 1.331 . S
O137 Mg133 1.986 . S
O137 C154 1.307 . S
O138 Mg127 2.023 . S
O138 C153 1.264 . S
O139 Mg128 1.942 . S
O139 C144 1.244 . S
O140 Mg128 1.955 . S
O140 C153 1.273 . S
O141 Mg130 2.114 . S
O141 Mg132 2.291 . S
O141 C143 1.312 . S
O142 Mg127 2.031 . S
O142 C143 1.208 . S
C143 O141 1.312 . S
C143 O142 1.208 . S
C144 O136 1.331 . S
C144 O139 1.244 . S
O145 Mg130 2.013 . S
O145 C134 1.191 . S
O146 C125 1.331 . S
O146 Mg132 2.081 . S
O147 Mg128 1.986 . S
O147 C134 1.307 . S
O148 C126 1.264 . S
O148 Mg132 2.023 . S
O149 C125 1.244 . S
O149 Mg133 1.942 . S
O150 C126 1.273 . S
O150 Mg133 1.955 . S
O151 C124 1.312 . S
O151 Mg127 2.291 . S
O151 Mg130 2.114 . S
O152 C124 1.208 . S
O152 Mg132 2.031 . S
C153 O138 1.264 . S
C153 O140 1.273 . S
C154 O135 1.191 . S
C154 O137 1.307 . S
C155 O182 1.312 . S
C155 O183 1.208 . S
C156 O177 1.331 . S
C156 O180 1.244 . S
C157 O179 1.264 . S
C157 O181 1.273 . S
Mg158 O160 1.936 . S
Mg158 O167 2.081 . S
Mg158 O169 2.023 . S
Mg158 O173 2.031 . S
Mg158 O182 2.291 . S
Mg159 O160 1.963 . S
Mg159 O170 1.942 . S
Mg159 O171 1.955 . S
Mg159 O178 1.986 . S
O160 Mg158 1.936 . S
O160 Mg159 1.963 . S
O160 Mg161 1.915 . S
Mg161 O160 1.915 . S
Mg161 O162 1.915 . S
Mg161 O166 2.013 . S
Mg161 O172 2.114 . S
Mg161 O176 2.013 . S
Mg161 O182 2.114 . S
O162 Mg161 1.915 . S
O162 Mg163 1.936 . S
O162 Mg164 1.963 . S
Mg163 O162 1.936 . S
Mg163 O172 2.291 . S
Mg163 O177 2.081 . S
Mg163 O179 2.023 . S
Mg163 O183 2.031 . S
Mg164 O162 1.963 . S
Mg164 O168 1.986 . S
Mg164 O180 1.942 . S
Mg164 O181 1.955 . S
C165 O176 1.191 . S
C165 O178 1.307 . S
O166 Mg161 2.013 . S
O166 C185 1.191 . S
O167 Mg158 2.081 . S
O167 C175 1.331 . S
O168 Mg164 1.986 . S
O168 C185 1.307 . S
O169 Mg158 2.023 . S
O169 C184 1.264 . S
O170 Mg159 1.942 . S
O170 C175 1.244 . S
O171 Mg159 1.955 . S
O171 C184 1.273 . S
O172 Mg161 2.114 . S
O172 Mg163 2.291 . S
O172 C174 1.312 . S
O173 Mg158 2.031 . S
O173 C174 1.208 . S
C174 O172 1.312 . S
C174 O173 1.208 . S
C175 O167 1.331 . S
C175 O170 1.244 . S
O176 Mg161 2.013 . S
O176 C165 1.191 . S
O177 C156 1.331 . S
O177 Mg163 2.081 . S
O178 Mg159 1.986 . S
O178 C165 1.307 . S
O179 C157 1.264 . S
O179 Mg163 2.023 . S
O180 C156 1.244 . S
O180 Mg164 1.942 . S
O181 C157 1.273 . S
O181 Mg164 1.955 . S
O182 C155 1.312 . S
O182 Mg158 2.291 . S
O182 Mg161 2.114 . S
O183 C155 1.208 . S
O183 Mg163 2.031 . S
C184 O169 1.264 . S
C184 O171 1.273 . S
C185 O166 1.191 . S
C185 O168 1.307 . S
C186 O213 1.312 . S
C186 O214 1.208 . S
C187 O208 1.331 . S
C187 O211 1.244 . S
C188 O210 1.264 . S
C188 O212 1.273 . S
Mg189 O191 1.936 . S
Mg189 O198 2.081 . S
Mg189 O200 2.023 . S
Mg189 O204 2.031 . S
Mg189 O213 2.291 . S
Mg190 O191 1.963 . S
Mg190 O201 1.942 . S
Mg190 O202 1.955 . S
Mg190 O209 1.986 . S
O191 Mg189 1.936 . S
O191 Mg190 1.963 . S
O191 Mg192 1.915 . S
Mg192 O191 1.915 . S
Mg192 O193 1.915 . S
Mg192 O197 2.013 . S
Mg192 O203 2.114 . S
Mg192 O207 2.013 . S
Mg192 O213 2.114 . S
O193 Mg192 1.915 . S
O193 Mg194 1.936 . S
O193 Mg195 1.963 . S
Mg194 O193 1.936 . S
Mg194 O203 2.291 . S
Mg194 O208 2.081 . S
Mg194 O210 2.023 . S
Mg194 O214 2.031 . S
Mg195 O193 1.963 . S
Mg195 O199 1.986 . S
Mg195 O211 1.942 . S
Mg195 O212 1.955 . S
C196 O207 1.191 . S
C196 O209 1.307 . S
O197 Mg192 2.013 . S
O197 C216 1.191 . S
O198 Mg189 2.081 . S
O198 C206 1.331 . S
O199 Mg195 1.986 . S
O199 C216 1.307 . S
O200 Mg189 2.023 . S
O200 C215 1.264 . S
O201 Mg190 1.942 . S
O201 C206 1.244 . S
O202 Mg190 1.955 . S
O202 C215 1.273 . S
O203 Mg192 2.114 . S
O203 Mg194 2.291 . S
O203 C205 1.312 . S
O204 Mg189 2.031 . S
O204 C205 1.208 . S
C205 O203 1.312 . S
C205 O204 1.208 . S
C206 O198 1.331 . S
C206 O201 1.244 . S
O207 Mg192 2.013 . S
O207 C196 1.191 . S
O208 C187 1.331 . S
O208 Mg194 2.081 . S
O209 Mg190 1.986 . S
O209 C196 1.307 . S
O210 C188 1.264 . S
O210 Mg194 2.023 . S
O211 C187 1.244 . S
O211 Mg195 1.942 . S
O212 C188 1.273 . S
O212 Mg195 1.955 . S
O213 C186 1.312 . S
O213 Mg189 2.291 . S
O213 Mg192 2.114 . S
O214 C186 1.208 . S
O214 Mg194 2.031 . S
C215 O200 1.264 . S
C215 O202 1.273 . S
C216 O197 1.191 . S
C216 O199 1.307 . S
C217 O244 1.312 . S
C217 O245 1.208 . S
C218 O239 1.331 . S
C218 O242 1.244 . S
C219 O241 1.264 . S
C219 O243 1.273 . S
Mg220 O222 1.936 . S
Mg220 O229 2.081 . S
Mg220 O231 2.023 . S
Mg220 O235 2.031 . S
Mg220 O244 2.291 . S
Mg221 O222 1.963 . S
Mg221 O232 1.942 . S
Mg221 O233 1.955 . S
Mg221 O240 1.986 . S
O222 Mg220 1.936 . S
O222 Mg221 1.963 . S
O222 Mg223 1.915 . S
Mg223 O222 1.915 . S
Mg223 O224 1.915 . S
Mg223 O228 2.013 . S
Mg223 O234 2.114 . S
Mg223 O238 2.013 . S
Mg223 O244 2.114 . S
O224 Mg223 1.915 . S
O224 Mg225 1.936 . S
O224 Mg226 1.963 . S
Mg225 O224 1.936 . S
Mg225 O234 2.291 . S
Mg225 O239 2.081 . S
Mg225 O241 2.023 . S
Mg225 O245 2.031 . S
Mg226 O224 1.963 . S
Mg226 O230 1.986 . S
Mg226 O242 1.942 . S
Mg226 O243 1.955 . S
C227 O238 1.191 . S
C227 O240 1.307 . S
O228 Mg223 2.013 . S
O228 C247 1.191 . S
O229 Mg220 2.081 . S
O229 C237 1.331 . S
O230 Mg226 1.986 . S
O230 C247 1.307 . S
O231 Mg220 2.023 . S
O231 C246 1.264 . S
O232 Mg221 1.942 . S
O232 C237 1.244 . S
O233 Mg221 1.955 . S
O233 C246 1.273 . S
O234 Mg223 2.114 . S
O234 Mg225 2.291 . S
O234 C236 1.312 . S
O235 Mg220 2.031 . S
O235 C236 1.208 . S
C236 O234 1.312 . S
C236 O235 1.208 . S
C237 O229 1.331 . S
C237 O232 1.244 . S
O238 Mg223 2.013 . S
O238 C227 1.191 . S
O239 C218 1.331 . S
O239 Mg225 2.081 . S
O240 Mg221 1.986 . S
O240 C227 1.307 . S
O241 C219 1.264 . S
O241 Mg225 2.023 . S
O242 C218 1.244 . S
O242 Mg226 1.942 . S
O243 C219 1.273 . S
O243 Mg226 1.955 . S
O244 C217 1.312 . S
O244 Mg220 2.291 . S
O244 Mg223 2.114 . S
O245 C217 1.208 . S
O245 Mg225 2.031 . S
C246 O231 1.264 . S
C246 O233 1.273 . S
C247 O228 1.191 . S
C247 O230 1.307 . S
C248 O275 1.312 . S
C248 O276 1.208 . S
C249 O270 1.331 . S
C249 O273 1.244 . S
C250 O272 1.264 . S
C250 O274 1.273 . S
Mg251 O253 1.936 . S
Mg251 O260 2.081 . S
Mg251 O262 2.023 . S
Mg251 O266 2.031 . S
Mg251 O275 2.291 . S
Mg252 O253 1.963 . S
Mg252 O263 1.942 . S
Mg252 O264 1.955 . S
Mg252 O271 1.986 . S
O253 Mg251 1.936 . S
O253 Mg252 1.963 . S
O253 Mg254 1.915 . S
Mg254 O253 1.915 . S
Mg254 O255 1.915 . S
Mg254 O259 2.013 . S
Mg254 O265 2.114 . S
Mg254 O269 2.013 . S
Mg254 O275 2.114 . S
O255 Mg254 1.915 . S
O255 Mg256 1.936 . S
O255 Mg257 1.963 . S
Mg256 O255 1.936 . S
Mg256 O265 2.291 . S
Mg256 O270 2.081 . S
Mg256 O272 2.023 . S
Mg256 O276 2.031 . S
Mg257 O255 1.963 . S
Mg257 O261 1.986 . S
Mg257 O273 1.942 . S
Mg257 O274 1.955 . S
C258 O269 1.191 . S
C258 O271 1.307 . S
O259 Mg254 2.013 . S
O259 C278 1.191 . S
O260 Mg251 2.081 . S
O260 C268 1.331 . S
O261 Mg257 1.986 . S
O261 C278 1.307 . S
O262 Mg251 2.023 . S
O262 C277 1.264 . S
O263 Mg252 1.942 . S
O263 C268 1.244 . S
O264 Mg252 1.955 . S
O264 C277 1.273 . S
O265 Mg254 2.114 . S
O265 Mg256 2.291 . S
O265 C267 1.312 . S
O266 Mg251 2.031 . S
O266 C267 1.208 . S
C267 O265 1.312 . S
C267 O266 1.208 . S
C268 O260 1.331 . S
C268 O263 1.244 . S
O269 Mg254 2.013 . S
O269 C258 1.191 . S
O270 C249 1.331 . S
O270 Mg256 2.081 . S
O271 Mg252 1.986 . S
O271 C258 1.307 . S
O272 C250 1.264 . S
O272 Mg256 2.023 . S
O273 C249 1.244 . S
O273 Mg257 1.942 . S
O274 C250 1.273 . S
O274 Mg257 1.955 . S
O275 C248 1.312 . S
O275 Mg251 2.291 . S
O275 Mg254 2.114 . S
O276 C248 1.208 . S
O276 Mg256 2.031 . S
C277 O262 1.264 . S
C277 O264 1.273 . S
C278 O259 1.191 . S
C278 O261 1.307 . S
C279 O306 1.312 . S
C279 O307 1.208 . S
C280 O301 1.331 . S
C280 O304 1.244 . S
C281 O303 1.264 . S
C281 O305 1.273 . S
Mg282 O284 1.936 . S
Mg282 O291 2.081 . S
Mg282 O293 2.023 . S
Mg282 O297 2.031 . S
Mg282 O306 2.291 . S
Mg283 O284 1.963 . S
Mg283 O294 1.942 . S
Mg283 O295 1.955 . S
Mg283 O302 1.986 . S
O284 Mg282 1.936 . S
O284 Mg283 1.963 . S
O284 Mg285 1.915 . S
Mg285 O284 1.915 . S
Mg285 O286 1.915 . S
Mg285 O290 2.013 . S
Mg285 O296 2.114 . S
Mg285 O300 2.013 . S
Mg285 O306 2.114 . S
O286 Mg285 1.915 . S
O286 Mg287 1.936 . S
O286 Mg288 1.963 . S
Mg287 O286 1.936 . S
Mg287 O296 2.291 . S
Mg287 O301 2.081 . S
Mg287 O303 2.023 . S
Mg287 O307 2.031 . S
Mg288 O286 1.963 . S
Mg288 O292 1.986 . S
Mg288 O304 1.942 . S
Mg288 O305 1.955 . S
C289 O300 1.191 . S
C289 O302 1.307 . S
O290 Mg285 2.013 . S
O290 C309 1.191 . S
O291 Mg282 2.081 . S
O291 C299 1.331 . S
O292 Mg288 1.986 . S
O292 C309 1.307 . S
O293 Mg282 2.023 . S
O293 C308 1.264 . S
O294 Mg283 1.942 . S
O294 C299 1.244 . S
O295 Mg283 1.955 . S
O295 C308 1.273 . S
O296 Mg285 2.114 . S
O296 Mg287 2.291 . S
O296 C298 1.312 . S
O297 Mg282 2.031 . S
O297 C298 1.208 . S
C298 O296 1.312 . S
C298 O297 1.208 . S
C299 O291 1.331 . S
C299 O294 1.244 . S
O300 Mg285 2.013 . S
O300 C289 1.191 . S
O301 C280 1.331 . S
O301 Mg287 2.081 . S
O302 Mg283 1.986 . S
O302 C289 1.307 . S
O303 C281 1.264 . S
O303 Mg287 2.023 . S
O304 C280 1.244 . S
O304 Mg288 1.942 . S
O305 C281 1.273 . S
O305 Mg288 1.955 . S
O306 C279 1.312 . S
O306 Mg282 2.291 . S
O306 Mg285 2.114 . S
O307 C279 1.208 . S
O307 Mg287 2.031 . S
C308 O293 1.264 . S
C308 O295 1.273 . S
C309 O290 1.191 . S
C309 O292 1.307 . S
C310 O337 1.312 . S
C310 O338 1.208 . S
C311 O332 1.331 . S
C311 O335 1.244 . S
C312 O334 1.264 . S
C312 O336 1.273 . S
Mg313 O315 1.936 . S
Mg313 O322 2.081 . S
Mg313 O324 2.023 . S
Mg313 O328 2.031 . S
Mg313 O337 2.291 . S
Mg314 O315 1.963 . S
Mg314 O325 1.942 . S
Mg314 O326 1.955 . S
Mg314 O333 1.986 . S
O315 Mg313 1.936 . S
O315 Mg314 1.963 . S
O315 Mg316 1.915 . S
Mg316 O315 1.915 . S
Mg316 O317 1.915 . S
Mg316 O321 2.013 . S
Mg316 O327 2.114 . S
Mg316 O331 2.013 . S
Mg316 O337 2.114 . S
O317 Mg316 1.915 . S
O317 Mg318 1.936 . S
O317 Mg319 1.963 . S
Mg318 O317 1.936 . S
Mg318 O327 2.291 . S
Mg318 O332 2.081 . S
Mg318 O334 2.023 . S
Mg318 O338 2.031 . S
Mg319 O317 1.963 . S
Mg319 O323 1.986 . S
Mg319 O335 1.942 . S
Mg319 O336 1.955 . S
C320 O331 1.191 . S
C320 O333 1.307 . S
O321 Mg316 2.013 . S
O321 C340 1.191 . S
O322 Mg313 2.081 . S
O322 C330 1.331 . S
O323 Mg319 1.986 . S
O323 C340 1.307 . S
O324 Mg313 2.023 . S
O324 C339 1.264 . S
O325 Mg314 1.942 . S
O325 C330 1.244 . S
O326 Mg314 1.955 . S
O326 C339 1.273 . S
O327 Mg316 2.114 . S
O327 Mg318 2.291 . S
O327 C329 1.312 . S
O328 Mg313 2.031 . S
O328 C329 1.208 . S
C329 O327 1.312 . S
C329 O328 1.208 . S
C330 O322 1.331 . S
C330 O325 1.244 . S
O331 Mg316 2.013 . S
O331 C320 1.191 . S
O332 C311 1.331 . S
O332 Mg318 2.081 . S
O333 Mg314 1.986 . S
O333 C320 1.307 . S
O334 C312 1.264 . S
O334 Mg318 2.023 . S
O335 C311 1.244 . S
O335 Mg319 1.942 . S
O336 C312 1.273 . S
O336 Mg319 1.955 . S
O337 C310 1.312 . S
O337 Mg313 2.291 . S
O337 Mg316 2.114 . S
O338 C310 1.208 . S
O338 Mg318 2.031 . S
C339 O324 1.264 . S
C339 O326 1.273 . S
C340 O321 1.191 . S
C340 O323 1.307 . S
C341 O368 1.312 . S
C341 O369 1.208 . S
C342 O363 1.331 . S
C342 O366 1.244 . S
C343 O365 1.264 . S
C343 O367 1.273 . S
Mg344 O346 1.936 . S
Mg344 O353 2.081 . S
Mg344 O355 2.023 . S
Mg344 O359 2.031 . S
Mg344 O368 2.291 . S
Mg345 O346 1.963 . S
Mg345 O356 1.942 . S
Mg345 O357 1.955 . S
Mg345 O364 1.986 . S
O346 Mg344 1.936 . S
O346 Mg345 1.963 . S
O346 Mg347 1.915 . S
Mg347 O346 1.915 . S
Mg347 O348 1.915 . S
Mg347 O352 2.013 . S
Mg347 O358 2.114 . S
Mg347 O362 2.013 . S
Mg347 O368 2.114 . S
O348 Mg347 1.915 . S
O348 Mg349 1.936 . S
O348 Mg350 1.963 . S
Mg349 O348 1.936 . S
Mg349 O358 2.291 . S
Mg349 O363 2.081 . S
Mg349 O365 2.023 . S
Mg349 O369 2.031 . S
Mg350 O348 1.963 . S
Mg350 O354 1.986 . S
Mg350 O366 1.942 . S
Mg350 O367 1.955 . S
C351 O362 1.191 . S
C351 O364 1.307 . S
O352 Mg347 2.013 . S
O352 C371 1.191 . S
O353 Mg344 2.081 . S
O353 C361 1.331 . S
O354 Mg350 1.986 . S
O354 C371 1.307 . S
O355 Mg344 2.023 . S
O355 C370 1.264 . S
O356 Mg345 1.942 . S
O356 C361 1.244 . S
O357 Mg345 1.955 . S
O357 C370 1.273 . S
O358 Mg347 2.114 . S
O358 Mg349 2.291 . S
O358 C360 1.312 . S
O359 Mg344 2.031 . S
O359 C360 1.208 . S
C360 O358 1.312 . S
C360 O359 1.208 . S
C361 O353 1.331 . S
C361 O356 1.244 . S
O362 Mg347 2.013 . S
O362 C351 1.191 . S
O363 C342 1.331 . S
O363 Mg349 2.081 . S
O364 Mg345 1.986 . S
O364 C351 1.307 . S
O365 C343 1.264 . S
O365 Mg349 2.023 . S
O366 C342 1.244 . S
O366 Mg350 1.942 . S
O367 C343 1.273 . S
O367 Mg350 1.955 . S
O368 C341 1.312 . S
O368 Mg344 2.291 . S
O368 Mg347 2.114 . S
O369 C341 1.208 . S
O369 Mg349 2.031 . S
C370 O355 1.264 . S
C370 O357 1.273 . S
C371 O352 1.191 . S
C371 O354 1.307 . S
C372 O399 1.312 . S
C372 O400 1.208 . S
C373 O394 1.331 . S
C373 O397 1.244 . S
C374 O396 1.264 . S
C374 O398 1.273 . S
Mg375 O377 1.936 . S
Mg375 O384 2.081 . S
Mg375 O386 2.023 . S
Mg375 O390 2.031 . S
Mg375 O399 2.291 . S
Mg376 O377 1.963 . S
Mg376 O387 1.942 . S
Mg376 O388 1.955 . S
Mg376 O395 1.986 . S
O377 Mg375 1.936 . S
O377 Mg376 1.963 . S
O377 Mg378 1.915 . S
Mg378 O377 1.915 . S
Mg378 O379 1.915 . S
Mg378 O383 2.013 . S
Mg378 O389 2.114 . S
Mg378 O393 2.013 . S
Mg378 O399 2.114 . S
O379 Mg378 1.915 . S
O379 Mg380 1.936 . S
O379 Mg381 1.963 . S
Mg380 O379 1.936 . S
Mg380 O389 2.291 . S
Mg380 O394 2.081 . S
Mg380 O396 2.023 . S
Mg380 O400 2.031 . S
Mg381 O379 1.963 . S
Mg381 O385 1.986 . S
Mg381 O397 1.942 . S
Mg381 O398 1.955 . S
C382 O393 1.191 . S
C382 O395 1.307 . S
O383 Mg378 2.013 . S
O383 C402 1.191 . S
O384 Mg375 2.081 . S
O384 C392 1.331 . S
O385 Mg381 1.986 . S
O385 C402 1.307 . S
O386 Mg375 2.023 . S
O386 C401 1.264 . S
O387 Mg376 1.942 . S
O387 C392 1.244 . S
O388 Mg376 1.955 . S
O388 C401 1.273 . S
O389 Mg378 2.114 . S
O389 Mg380 2.291 . S
O389 C391 1.312 . S
O390 Mg375 2.031 . S
O390 C391 1.208 . S
C391 O389 1.312 . S
C391 O390 1.208 . S
C392 O384 1.331 . S
C392 O387 1.244 . S
O393 Mg378 2.013 . S
O393 C382 1.191 . S
O394 C373 1.331 . S
O394 Mg380 2.081 . S
O395 Mg376 1.986 . S
O395 C382 1.307 . S
O396 C374 1.264 . S
O396 Mg380 2.023 . S
O397 C373 1.244 . S
O397 Mg381 1.942 . S
O398 C374 1.273 . S
O398 Mg381 1.955 . S
O399 C372 1.312 . S
O399 Mg375 2.291 . S
O399 Mg378 2.114 . S
O400 C372 1.208 . S
O400 Mg380 2.031 . S
C401 O386 1.264 . S
C401 O388 1.273 . S
C402 O383 1.191 . S
C402 O385 1.307 . S
C403 O430 1.312 . S
C403 O431 1.208 . S
C404 O425 1.331 . S
C404 O428 1.244 . S
C405 O427 1.264 . S
C405 O429 1.273 . S
Mg406 O408 1.936 . S
Mg406 O415 2.081 . S
Mg406 O417 2.023 . S
Mg406 O421 2.031 . S
Mg406 O430 2.291 . S
Mg407 O408 1.963 . S
Mg407 O418 1.942 . S
Mg407 O419 1.955 . S
Mg407 O426 1.986 . S
O408 Mg406 1.936 . S
O408 Mg407 1.963 . S
O408 Mg409 1.915 . S
Mg409 O408 1.915 . S
Mg409 O410 1.915 . S
Mg409 O414 2.013 . S
Mg409 O420 2.114 . S
Mg409 O424 2.013 . S
Mg409 O430 2.114 . S
O410 Mg409 1.915 . S
O410 Mg411 1.936 . S
O410 Mg412 1.963 . S
Mg411 O410 1.936 . S
Mg411 O420 2.291 . S
Mg411 O425 2.081 . S
Mg411 O427 2.023 . S
Mg411 O431 2.031 . S
Mg412 O410 1.963 . S
Mg412 O416 1.986 . S
Mg412 O428 1.942 . S
Mg412 O429 1.955 . S
C413 O424 1.191 . S
C413 O426 1.307 . S
O414 Mg409 2.013 . S
O414 C433 1.191 . S
O415 Mg406 2.081 . S
O415 C423 1.331 . S
O416 Mg412 1.986 . S
O416 C433 1.307 . S
O417 Mg406 2.023 . S
O417 C432 1.264 . S
O418 Mg407 1.942 . S
O418 C423 1.244 . S
O419 Mg407 1.955 . S
O419 C432 1.273 . S
O420 Mg409 2.114 . S
O420 Mg411 2.291 . S
O420 C422 1.312 . S
O421 Mg406 2.031 . S
O421 C422 1.208 . S
C422 O420 1.312 . S
C422 O421 1.208 . S
C423 O415 1.331 . S
C423 O418 1.244 . S
O424 Mg409 2.013 . S
O424 C413 1.191 . S
O425 C404 1.331 . S
O425 Mg411 2.081 . S
O426 Mg407 1.986 . S
O426 C413 1.307 . S
O427 C405 1.264 . S
O427 Mg411 2.023 . S
O428 C404 1.244 . S
O428 Mg412 1.942 . S
O429 C405 1.273 . S
O429 Mg412 1.955 . S
O430 C403 1.312 . S
O430 Mg406 2.291 . S
O430 Mg409 2.114 . S
O431 C403 1.208 . S
O431 Mg411 2.031 . S
C432 O417 1.264 . S
C432 O419 1.273 . S
C433 O414 1.191 . S
C433 O416 1.307 . S
C434 O461 1.312 . S
C434 O462 1.208 . S
C435 O456 1.331 . S
C435 O459 1.244 . S
C436 O458 1.264 . S
C436 O460 1.273 . S
Mg437 O439 1.936 . S
Mg437 O446 2.081 . S
Mg437 O448 2.023 . S
Mg437 O452 2.031 . S
Mg437 O461 2.291 . S
Mg438 O439 1.963 . S
Mg438 O449 1.942 . S
Mg438 O450 1.955 . S
Mg438 O457 1.986 . S
O439 Mg437 1.936 . S
O439 Mg438 1.963 . S
O439 Mg440 1.915 . S
Mg440 O439 1.915 . S
Mg440 O441 1.915 . S
Mg440 O445 2.013 . S
Mg440 O451 2.114 . S
Mg440 O455 2.013 . S
Mg440 O461 2.114 . S
O441 Mg440 1.915 . S
O441 Mg442 1.936 . S
O441 Mg443 1.963 . S
Mg442 O441 1.936 . S
Mg442 O451 2.291 . S
Mg442 O456 2.081 . S
Mg442 O458 2.023 . S
Mg442 O462 2.031 . S
Mg443 O441 1.963 . S
Mg443 O447 1.986 . S
Mg443 O459 1.942 . S
Mg443 O460 1.955 . S
C444 O455 1.191 . S
C444 O457 1.307 . S
O445 Mg440 2.013 . S
O445 C464 1.191 . S
O446 Mg437 2.081 . S
O446 C454 1.331 . S
O447 Mg443 1.986 . S
O447 C464 1.307 . S
O448 Mg437 2.023 . S
O448 C463 1.264 . S
O449 Mg438 1.942 . S
O449 C454 1.244 . S
O450 Mg438 1.955 . S
O450 C463 1.273 . S
O451 Mg440 2.114 . S
O451 Mg442 2.291 . S
O451 C453 1.312 . S
O452 Mg437 2.031 . S
O452 C453 1.208 . S
C453 O451 1.312 . S
C453 O452 1.208 . S
C454 O446 1.331 . S
C454 O449 1.244 . S
O455 Mg440 2.013 . S
O455 C444 1.191 . S
O456 C435 1.331 . S
O456 Mg442 2.081 . S
O457 Mg438 1.986 . S
O457 C444 1.307 . S
O458 C436 1.264 . S
O458 Mg442 2.023 . S
O459 C435 1.244 . S
O459 Mg443 1.942 . S
O460 C436 1.273 . S
O460 Mg443 1.955 . S
O461 C434 1.312 . S
O461 Mg437 2.291 . S
O461 Mg440 2.114 . S
O462 C434 1.208 . S
O462 Mg442 2.031 . S
C463 O448 1.264 . S
C463 O450 1.273 . S
C464 O445 1.191 . S
C464 O447 1.307 . S
C465 O492 1.312 . S
C465 O493 1.208 . S
C466 O487 1.331 . S
C466 O490 1.244 . S
C467 O489 1.264 . S
C467 O491 1.273 . S
Mg468 O470 1.936 . S
Mg468 O477 2.081 . S
Mg468 O479 2.023 . S
Mg468 O483 2.031 . S
Mg468 O492 2.291 . S
Mg469 O470 1.963 . S
Mg469 O480 1.942 . S
Mg469 O481 1.955 . S
Mg469 O488 1.986 . S
O470 Mg468 1.936 . S
O470 Mg469 1.963 . S
O470 Mg471 1.915 . S
Mg471 O470 1.915 . S
Mg471 O472 1.915 . S
Mg471 O476 2.013 . S
Mg471 O482 2.114 . S
Mg471 O486 2.013 . S
Mg471 O492 2.114 . S
O472 Mg471 1.915 . S
O472 Mg473 1.936 . S
O472 Mg474 1.963 . S
Mg473 O472 1.936 . S
Mg473 O482 2.291 . S
Mg473 O487 2.081 . S
Mg473 O489 2.023 . S
Mg473 O493 2.031 . S
Mg474 O472 1.963 . S
Mg474 O478 1.986 . S
Mg474 O490 1.942 . S
Mg474 O491 1.955 . S
C475 O486 1.191 . S
C475 O488 1.307 . S
O476 Mg471 2.013 . S
O476 C495 1.191 . S
O477 Mg468 2.081 . S
O477 C485 1.331 . S
O478 Mg474 1.986 . S
O478 C495 1.307 . S
O479 Mg468 2.023 . S
O479 C494 1.264 . S
O480 Mg469 1.942 . S
O480 C485 1.244 . S
O481 Mg469 1.955 . S
O481 C494 1.273 . S
O482 Mg471 2.114 . S
O482 Mg473 2.291 . S
O482 C484 1.312 . S
O483 Mg468 2.031 . S
O483 C484 1.208 . S
C484 O482 1.312 . S
C484 O483 1.208 . S
C485 O477 1.331 . S
C485 O480 1.244 . S
O486 Mg471 2.013 . S
O486 C475 1.191 . S
O487 C466 1.331 . S
O487 Mg473 2.081 . S
O488 Mg469 1.986 . S
O488 C475 1.307 . S
O489 C467 1.264 . S
O489 Mg473 2.023 . S
O490 C466 1.244 . S
O490 Mg474 1.942 . S
O491 C467 1.273 . S
O491 Mg474 1.955 . S
O492 C465 1.312 . S
O492 Mg468 2.291 . S
O492 Mg471 2.114 . S
O493 C465 1.208 . S
O493 Mg473 2.031 . S
C494 O479 1.264 . S
C494 O481 1.273 . S
C495 O476 1.191 . S
C495 O478 1.307 . S
C496 O523 1.312 . S
C496 O524 1.208 . S
C497 O518 1.331 . S
C497 O521 1.244 . S
C498 O520 1.264 . S
C498 O522 1.273 . S
Mg499 O501 1.936 . S
Mg499 O508 2.081 . S
Mg499 O510 2.023 . S
Mg499 O514 2.031 . S
Mg499 O523 2.291 . S
Mg500 O501 1.963 . S
Mg500 O511 1.942 . S
Mg500 O512 1.955 . S
Mg500 O519 1.986 . S
O501 Mg499 1.936 . S
O501 Mg500 1.963 . S
O501 Mg502 1.915 . S
Mg502 O501 1.915 . S
Mg502 O503 1.915 . S
Mg502 O507 2.013 . S
Mg502 O513 2.114 . S
Mg502 O517 2.013 . S
Mg502 O523 2.114 . S
O503 Mg502 1.915 . S
O503 Mg504 1.936 . S
O503 Mg505 1.963 . S
Mg504 O503 1.936 . S
Mg504 O513 2.291 . S
Mg504 O518 2.081 . S
Mg504 O520 2.023 . S
Mg504 O524 2.031 . S
Mg505 O503 1.963 . S
Mg505 O509 1.986 . S
Mg505 O521 1.942 . S
Mg505 O522 1.955 . S
C506 O517 1.191 . S
C506 O519 1.307 . S
O507 Mg502 2.013 . S
O507 C526 1.191 . S
O508 Mg499 2.081 . S
O508 C516 1.331 . S
O509 Mg505 1.986 . S
O509 C526 1.307 . S
O510 Mg499 2.023 . S
O510 C525 1.264 . S
O511 Mg500 1.942 . S
O511 C516 1.244 . S
O512 Mg500 1.955 . S
O512 C525 1.273 . S
O513 Mg502 2.114 . S
O513 Mg504 2.291 . S
O513 C515 1.312 . S
O514 Mg499 2.031 . S
O514 C515 1.208 . S
C515 O513 1.312 . S
C515 O514 1.208 . S
C516 O508 1.331 . S
C516 O511 1.244 . S
O517 Mg502 2.013 . S
O517 C506 1.191 . S
O518 C497 1.331 . S
O518 Mg504 2.081 . S
O519 Mg500 1.986 . S
O519 C506 1.307 . S
O520 C498 1.264 . S
O520 Mg504 2.023 . S
O521 C497 1.244 . S
O521 Mg505 1.942 . S
O522 C498 1.273 . S
O522 Mg505 1.955 . S
O523 C496 1.312 . S
O523 Mg499 2.291 . S
O523 Mg502 2.114 . S
O524 C496 1.208 . S
O524 Mg504 2.031 . S
C525 O510 1.264 . S
C525 O512 1.273 . S
C526 O507 1.191 . S
C526 O509 1.307 . S
C527 O554 1.312 . S
C527 O555 1.208 . S
C528 O549 1.331 . S
C528 O552 1.244 . S
C529 O551 1.264 . S
C529 O553 1.273 . S
Mg530 O532 1.936 . S
Mg530 O539 2.081 . S
Mg530 O541 2.023 . S
Mg530 O545 2.031 . S
Mg530 O554 2.291 . S
Mg531 O532 1.963 . S
Mg531 O542 1.942 . S
Mg531 O543 1.955 . S
Mg531 O550 1.986 . S
O532 Mg530 1.936 . S
O532 Mg531 1.963 . S
O532 Mg533 1.915 . S
Mg533 O532 1.915 . S
Mg533 O534 1.915 . S
Mg533 O538 2.013 . S
Mg533 O544 2.114 . S
Mg533 O548 2.013 . S
Mg533 O554 2.114 . S
O534 Mg533 1.915 . S
O534 Mg535 1.936 . S
O534 Mg536 1.963 . S
Mg535 O534 1.936 . S
Mg535 O544 2.291 . S
Mg535 O549 2.081 . S
Mg535 O551 2.023 . S
Mg535 O555 2.031 . S
Mg536 O534 1.963 . S
Mg536 O540 1.986 . S
Mg536 O552 1.942 . S
Mg536 O553 1.955 . S
C537 O548 1.191 . S
C537 O550 1.307 . S
O538 Mg533 2.013 . S
O538 C557 1.191 . S
O539 Mg530 2.081 . S
O539 C547 1.331 . S
O540 Mg536 1.986 . S
O540 C557 1.307 . S
O541 Mg530 2.023 . S
O541 C556 1.264 . S
O542 Mg531 1.942 . S
O542 C547 1.244 . S
O543 Mg531 1.955 . S
O543 C556 1.273 . S
O544 Mg533 2.114 . S
O544 Mg535 2.291 . S
O544 C546 1.312 . S
O545 Mg530 2.031 . S
O545 C546 1.208 . S
C546 O544 1.312 . S
C546 O545 1.208 . S
C547 O539 1.331 . S
C547 O542 1.244 . S
O548 Mg533 2.013 . S
O548 C537 1.191 . S
O549 C528 1.331 . S
O549 Mg535 2.081 . S
O550 Mg531 1.986 . S
O550 C537 1.307 . S
O551 C529 1.264 . S
O551 Mg535 2.023 . S
O552 C528 1.244 . S
O552 Mg536 1.942 . S
O553 C529 1.273 . S
O553 Mg536 1.955 . S
O554 C527 1.312 . S
O554 Mg530 2.291 . S
O554 Mg533 2.114 . S
O555 C527 1.208 . S
O555 Mg535 2.031 . S
C556 O541 1.264 . S
C556 O543 1.273 . S
C557 O538 1.191 . S
C557 O540 1.307 . S
C558 O585 1.312 . S
C558 O586 1.208 . S
C559 O580 1.331 . S
C559 O583 1.244 . S
C560 O582 1.264 . S
C560 O584 1.273 . S
Mg561 O563 1.936 . S
Mg561 O570 2.081 . S
Mg561 O572 2.023 . S
Mg561 O576 2.031 . S
Mg561 O585 2.291 . S
Mg562 O563 1.963 . S
Mg562 O573 1.942 . S
Mg562 O574 1.955 . S
Mg562 O581 1.986 . S
O563 Mg561 1.936 . S
O563 Mg562 1.963 . S
O563 Mg564 1.915 . S
Mg564 O563 1.915 . S
Mg564 O565 1.915 . S
Mg564 O569 2.013 . S
Mg564 O575 2.114 . S
Mg564 O579 2.013 . S
Mg564 O585 2.114 . S
O565 Mg564 1.915 . S
O565 Mg566 1.936 . S
O565 Mg567 1.963 . S
Mg566 O565 1.936 . S
Mg566 O575 2.291 . S
Mg566 O580 2.081 . S
Mg566 O582 2.023 . S
Mg566 O586 2.031 . S
Mg567 O565 1.963 . S
Mg567 O571 1.986 . S
Mg567 O583 1.942 . S
Mg567 O584 1.955 . S
C568 O579 1.191 . S
C568 O581 1.307 . S
O569 Mg564 2.013 . S
O569 C588 1.191 . S
O570 Mg561 2.081 . S
O570 C578 1.331 . S
O571 Mg567 1.986 . S
O571 C588 1.307 . S
O572 Mg561 2.023 . S
O572 C587 1.264 . S
O573 Mg562 1.942 . S
O573 C578 1.244 . S
O574 Mg562 1.955 . S
O574 C587 1.273 . S
O575 Mg564 2.114 . S
O575 Mg566 2.291 . S
O575 C577 1.312 . S
O576 Mg561 2.031 . S
O576 C577 1.208 . S
C577 O575 1.312 . S
C577 O576 1.208 . S
C578 O570 1.331 . S
C578 O573 1.244 . S
O579 Mg564 2.013 . S
O579 C568 1.191 . S
O580 C559 1.331 . S
O580 Mg566 2.081 . S
O581 Mg562 1.986 . S
O581 C568 1.307 . S
O582 C560 1.264 . S
O582 Mg566 2.023 . S
O583 C559 1.244 . S
O583 Mg567 1.942 . S
O584 C560 1.273 . S
O584 Mg567 1.955 . S
O585 C558 1.312 . S
O585 Mg561 2.291 . S
O585 Mg564 2.114 . S
O586 C558 1.208 . S
O586 Mg566 2.031 . S
C587 O572 1.264 . S
C587 O574 1.273 . S
C588 O569 1.191 . S
C588 O571 1.307 . S
C589 O616 1.312 . S
C589 O617 1.208 . S
C590 O611 1.331 . S
C590 O614 1.244 . S
C591 O613 1.264 . S
C591 O615 1.273 . S
Mg592 O594 1.936 . S
Mg592 O601 2.081 . S
Mg592 O603 2.023 . S
Mg592 O607 2.031 . S
Mg592 O616 2.291 . S
Mg593 O594 1.963 . S
Mg593 O604 1.942 . S
Mg593 O605 1.955 . S
Mg593 O612 1.986 . S
O594 Mg592 1.936 . S
O594 Mg593 1.963 . S
O594 Mg595 1.915 . S
Mg595 O594 1.915 . S
Mg595 O596 1.915 . S
Mg595 O600 2.013 . S
Mg595 O606 2.114 . S
Mg595 O610 2.013 . S
Mg595 O616 2.114 . S
O596 Mg595 1.915 . S
O596 Mg597 1.936 . S
O596 Mg598 1.963 . S
Mg597 O596 1.936 . S
Mg597 O606 2.291 . S
Mg597 O611 2.081 . S
Mg597 O613 2.023 . S
Mg597 O617 2.031 . S
Mg598 O596 1.963 . S
Mg598 O602 1.986 . S
Mg598 O614 1.942 . S
Mg598 O615 1.955 . S
C599 O610 1.191 . S
C599 O612 1.307 . S
O600 Mg595 2.013 . S
O600 C619 1.191 . S
O601 Mg592 2.081 . S
O601 C609 1.331 . S
O602 Mg598 1.986 . S
O602 C619 1.307 . S
O603 Mg592 2.023 . S
O603 C618 1.264 . S
O604 Mg593 1.942 . S
O604 C609 1.244 . S
O605 Mg593 1.955 . S
O605 C618 1.273 . S
O606 Mg595 2.114 . S
O606 Mg597 2.291 . S
O606 C608 1.312 . S
O607 Mg592 2.031 . S
O607 C608 1.208 . S
C608 O606 1.312 . S
C608 O607 1.208 . S
C609 O601 1.331 . S
C609 O604 1.244 . S
O610 Mg595 2.013 . S
O610 C599 1.191 . S
O611 C590 1.331 . S
O611 Mg597 2.081 . S
O612 Mg593 1.986 . S
O612 C599 1.307 . S
O613 C591 1.264 . S
O613 Mg597 2.023 . S
O614 C590 1.244 . S
O614 Mg598 1.942 . S
O615 C591 1.273 . S
O615 Mg598 1.955 . S
O616 C589 1.312 . S
O616 Mg592 2.291 . S
O616 Mg595 2.114 . S
O617 C589 1.208 . S
O617 Mg597 2.031 . S
C618 O603 1.264 . S
C618 O605 1.273 . S
C619 O600 1.191 . S
C619 O602 1.307 . S
C620 O647 1.312 . S
C620 O648 1.208 . S
C621 O642 1.331 . S
C621 O645 1.244 . S
C622 O644 1.264 . S
C622 O646 1.273 . S
Mg623 O625 1.936 . S
Mg623 O632 2.081 . S
Mg623 O634 2.023 . S
Mg623 O638 2.031 . S
Mg623 O647 2.291 . S
Mg624 O625 1.963 . S
Mg624 O635 1.942 . S
Mg624 O636 1.955 . S
Mg624 O643 1.986 . S
O625 Mg623 1.936 . S
O625 Mg624 1.963 . S
O625 Mg626 1.915 . S
Mg626 O625 1.915 . S
Mg626 O627 1.915 . S
Mg626 O631 2.013 . S
Mg626 O637 2.114 . S
Mg626 O641 2.013 . S
Mg626 O647 2.114 . S
O627 Mg626 1.915 . S
O627 Mg628 1.936 . S
O627 Mg629 1.963 . S
Mg628 O627 1.936 . S
Mg628 O637 2.291 . S
Mg628 O642 2.081 . S
Mg628 O644 2.023 . S
Mg628 O648 2.031 . S
Mg629 O627 1.963 . S
Mg629 O633 1.986 . S
Mg629 O645 1.942 . S
Mg629 O646 1.955 . S
C630 O641 1.191 . S
C630 O643 1.307 . S
O631 Mg626 2.013 . S
O631 C650 1.191 . S
O632 Mg623 2.081 . S
O632 C640 1.331 . S
O633 Mg629 1.986 . S
O633 C650 1.307 . S
O634 Mg623 2.023 . S
O634 C649 1.264 . S
O635 Mg624 1.942 . S
O635 C640 1.244 . S
O636 Mg624 1.955 . S
O636 C649 1.273 . S
O637 Mg626 2.114 . S
O637 Mg628 2.291 . S
O637 C639 1.312 . S
O638 Mg623 2.031 . S
O638 C639 1.208 . S
C639 O637 1.312 . S
C639 O638 1.208 . S
C640 O632 1.331 . S
C640 O635 1.244 . S
O641 Mg626 2.013 . S
O641 C630 1.191 . S
O642 C621 1.331 . S
O642 Mg628 2.081 . S
O643 Mg624 1.986 . S
O643 C630 1.307 . S
O644 C622 1.264 . S
O644 Mg628 2.023 . S
O645 C621 1.244 . S
O645 Mg629 1.942 . S
O646 C622 1.273 . S
O646 Mg629 1.955 . S
O647 C620 1.312 . S
O647 Mg623 2.291 . S
O647 Mg626 2.114 . S
O648 C620 1.208 . S
O648 Mg628 2.031 . S
C649 O634 1.264 . S
C649 O636 1.273 . S
C650 O631 1.191 . S
C650 O633 1.307 . S
C651 O678 1.312 . S
C651 O679 1.208 . S
C652 O673 1.331 . S
C652 O676 1.244 . S
C653 O675 1.264 . S
C653 O677 1.273 . S
Mg654 O656 1.936 . S
Mg654 O663 2.081 . S
Mg654 O665 2.023 . S
Mg654 O669 2.031 . S
Mg654 O678 2.291 . S
Mg655 O656 1.963 . S
Mg655 O666 1.942 . S
Mg655 O667 1.955 . S
Mg655 O674 1.986 . S
O656 Mg654 1.936 . S
O656 Mg655 1.963 . S
O656 Mg657 1.915 . S
Mg657 O656 1.915 . S
Mg657 O658 1.915 . S
Mg657 O662 2.013 . S
Mg657 O668 2.114 . S
Mg657 O672 2.013 . S
Mg657 O678 2.114 . S
O658 Mg657 1.915 . S
O658 Mg659 1.936 . S
O658 Mg660 1.963 . S
Mg659 O658 1.936 . S
Mg659 O668 2.291 . S
Mg659 O673 2.081 . S
Mg659 O675 2.023 . S
Mg659 O679 2.031 . S
Mg660 O658 1.963 . S
Mg660 O664 1.986 . S
Mg660 O676 1.942 . S
Mg660 O677 1.955 . S
C661 O672 1.191 . S
C661 O674 1.307 . S
O662 Mg657 2.013 . S
O662 C681 1.191 . S
O663 Mg654 2.081 . S
O663 C671 1.331 . S
O664 Mg660 1.986 . S
O664 C681 1.307 . S
O665 Mg654 2.023 . S
O665 C680 1.264 . S
O666 Mg655 1.942 . S
O666 C671 1.244 . S
O667 Mg655 1.955 . S
O667 C680 1.273 . S
O668 Mg657 2.114 . S
O668 Mg659 2.291 . S
O668 C670 1.312 . S
O669 Mg654 2.031 . S
O669 C670 1.208 . S
C670 O668 1.312 . S
C670 O669 1.208 . S
C671 O663 1.331 . S
C671 O666 1.244 . S
O672 Mg657 2.013 . S
O672 C661 1.191 . S
O673 C652 1.331 . S
O673 Mg659 2.081 . S
O674 Mg655 1.986 . S
O674 C661 1.307 . S
O675 C653 1.264 . S
O675 Mg659 2.023 . S
O676 C652 1.244 . S
O676 Mg660 1.942 . S
O677 C653 1.273 . S
O677 Mg660 1.955 . S
O678 C651 1.312 . S
O678 Mg654 2.291 . S
O678 Mg657 2.114 . S
O679 C651 1.208 . S
O679 Mg659 2.031 . S
C680 O665 1.264 . S
C680 O667 1.273 . S
C681 O662 1.191 . S
C681 O664 1.307 . S
C682 O709 1.312 . S
C682 O710 1.208 . S
C683 O704 1.331 . S
C683 O707 1.244 . S
C684 O706 1.264 . S
C684 O708 1.273 . S
Mg685 O687 1.936 . S
Mg685 O694 2.081 . S
Mg685 O696 2.023 . S
Mg685 O700 2.031 . S
Mg685 O709 2.291 . S
Mg686 O687 1.963 . S
Mg686 O697 1.942 . S
Mg686 O698 1.955 . S
Mg686 O705 1.986 . S
O687 Mg685 1.936 . S
O687 Mg686 1.963 . S
O687 Mg688 1.915 . S
Mg688 O687 1.915 . S
Mg688 O689 1.915 . S
Mg688 O693 2.013 . S
Mg688 O699 2.114 . S
Mg688 O703 2.013 . S
Mg688 O709 2.114 . S
O689 Mg688 1.915 . S
O689 Mg690 1.936 . S
O689 Mg691 1.963 . S
Mg690 O689 1.936 . S
Mg690 O699 2.291 . S
Mg690 O704 2.081 . S
Mg690 O706 2.023 . S
Mg690 O710 2.031 . S
Mg691 O689 1.963 . S
Mg691 O695 1.986 . S
Mg691 O707 1.942 . S
Mg691 O708 1.955 . S
C692 O703 1.191 . S
C692 O705 1.307 . S
O693 Mg688 2.013 . S
O693 C712 1.191 . S
O694 Mg685 2.081 . S
O694 C702 1.331 . S
O695 Mg691 1.986 . S
O695 C712 1.307 . S
O696 Mg685 2.023 . S
O696 C711 1.264 . S
O697 Mg686 1.942 . S
O697 C702 1.244 . S
O698 Mg686 1.955 . S
O698 C711 1.273 . S
O699 Mg688 2.114 . S
O699 Mg690 2.291 . S
O699 C701 1.312 . S
O700 Mg685 2.031 . S
O700 C701 1.208 . S
C701 O699 1.312 . S
C701 O700 1.208 . S
C702 O694 1.331 . S
C702 O697 1.244 . S
O703 Mg688 2.013 . S
O703 C692 1.191 . S
O704 C683 1.331 . S
O704 Mg690 2.081 . S
O705 Mg686 1.986 . S
O705 C692 1.307 . S
O706 C684 1.264 . S
O706 Mg690 2.023 . S
O707 C683 1.244 . S
O707 Mg691 1.942 . S
O708 C684 1.273 . S
O708 Mg691 1.955 . S
O709 C682 1.312 . S
O709 Mg685 2.291 . S
O709 Mg688 2.114 . S
O710 C682 1.208 . S
O710 Mg690 2.031 . S
C711 O696 1.264 . S
C711 O698 1.273 . S
C712 O693 1.191 . S
C712 O695 1.307 . S
C713 O740 1.312 . S
C713 O741 1.208 . S
C714 O735 1.331 . S
C714 O738 1.244 . S
C715 O737 1.264 . S
C715 O739 1.273 . S
Mg716 O718 1.936 . S
Mg716 O725 2.081 . S
Mg716 O727 2.023 . S
Mg716 O731 2.031 . S
Mg716 O740 2.291 . S
Mg717 O718 1.963 . S
Mg717 O728 1.942 . S
Mg717 O729 1.955 . S
Mg717 O736 1.986 . S
O718 Mg716 1.936 . S
O718 Mg717 1.963 . S
O718 Mg719 1.915 . S
Mg719 O718 1.915 . S
Mg719 O720 1.915 . S
Mg719 O724 2.013 . S
Mg719 O730 2.114 . S
Mg719 O734 2.013 . S
Mg719 O740 2.114 . S
O720 Mg719 1.915 . S
O720 Mg721 1.936 . S
O720 Mg722 1.963 . S
Mg721 O720 1.936 . S
Mg721 O730 2.291 . S
Mg721 O735 2.081 . S
Mg721 O737 2.023 . S
Mg721 O741 2.031 . S
Mg722 O720 1.963 . S
Mg722 O726 1.986 . S
Mg722 O738 1.942 . S
Mg722 O739 1.955 . S
C723 O734 1.191 . S
C723 O736 1.307 . S
O724 Mg719 2.013 . S
O724 C743 1.191 . S
O725 Mg716 2.081 . S
O725 C733 1.331 . S
O726 Mg722 1.986 . S
O726 C743 1.307 . S
O727 Mg716 2.023 . S
O727 C742 1.264 . S
O728 Mg717 1.942 . S
O728 C733 1.244 . S
O729 Mg717 1.955 . S
O729 C742 1.273 . S
O730 Mg719 2.114 . S
O730 Mg721 2.291 . S
O730 C732 1.312 . S
O731 Mg716 2.031 . S
O731 C732 1.208 . S
C732 O730 1.312 . S
C732 O731 1.208 . S
C733 O725 1.331 . S
C733 O728 1.244 . S
O734 Mg719 2.013 . S
O734 C723 1.191 . S
O735 C714 1.331 . S
O735 Mg721 2.081 . S
O736 Mg717 1.986 . S
O736 C723 1.307 . S
O737 C715 1.264 . S
O737 Mg721 2.023 . S
O738 C714 1.244 . S
O738 Mg722 1.942 . S
O739 C715 1.273 . S
O739 Mg722 1.955 . S
O740 C713 1.312 . S
O740 Mg716 2.291 . S
O740 Mg719 2.114 . S
O741 C713 1.208 . S
O741 Mg721 2.031 . S
C742 O727 1.264 . S
C742 O729 1.273 . S
C743 O724 1.191 . S
C743 O726 1.307 . S
C744 C745 1.332 . S
C744 C746 1.345 . S
C744 H764 0.932 . S
C745 C744 1.332 . S
C745 C754 1.332 . S
C746 C744 1.345 . S
C746 C758 1.334 . S
C746 H765 0.928 . S
C747 C748 1.332 . S
C747 C749 1.345 . S
C747 H766 0.932 . S
C748 C747 1.332 . S
C748 C756 1.332 . S
C749 C747 1.345 . S
C749 C761 1.334 . S
C749 H767 0.928 . S
H750 C754 0.932 . S
H751 C755 0.928 . S
H752 C756 0.932 . S
H753 C757 0.928 . S
C754 C745 1.332 . S
C754 H750 0.932 . S
C754 C755 1.345 . S
C755 H751 0.928 . S
C755 C754 1.345 . S
C755 C758 1.334 . S
C756 C748 1.332 . S
C756 H752 0.932 . S
C756 C757 1.345 . S
C757 H753 0.928 . S
C757 C756 1.345 . S
C757 C761 1.334 . S
C758 C746 1.334 . S
C758 C755 1.334 . S
C758 C759 1.487 . S
C759 C758 1.487 . S
C759 C760 1.185 . S
C760 C759 1.185 . S
C760 C763 1.482 . S
C761 C749 1.334 . S
C761 C757 1.334 . S
C761 C762 1.487 . S
C762 C761 1.487 . S
C762 C763 1.185 . S
C763 C760 1.482 . S
C763 C762 1.185 . S
H764 C744 0.932 . S
H765 C746 0.928 . S
H766 C747 0.932 . S
H767 C749 0.928 . S
C768 C769 1.332 . S
C768 C770 1.345 . S
C768 H788 0.932 . S
C769 C768 1.332 . S
C769 C778 1.332 . S
C770 C768 1.345 . S
C770 C782 1.334 . S
C770 H789 0.928 . S
C771 C772 1.332 . S
C771 C773 1.345 . S
C771 H790 0.932 . S
C772 C771 1.332 . S
C772 C780 1.332 . S
C773 C771 1.345 . S
C773 C785 1.334 . S
C773 H791 0.928 . S
H774 C778 0.932 . S
H775 C779 0.928 . S
H776 C780 0.932 . S
H777 C781 0.928 . S
C778 C769 1.332 . S
C778 H774 0.932 . S
C778 C779 1.345 . S
C779 H775 0.928 . S
C779 C778 1.345 . S
C779 C782 1.334 . S
C780 C772 1.332 . S
C780 H776 0.932 . S
C780 C781 1.345 . S
C781 H777 0.928 . S
C781 C780 1.345 . S
C781 C785 1.334 . S
C782 C770 1.334 . S
C782 C779 1.334 . S
C782 C783 1.487 . S
C783 C782 1.487 . S
C783 C784 1.185 . S
C784 C783 1.185 . S
C784 C787 1.482 . S
C785 C773 1.334 . S
C785 C781 1.334 . S
C785 C786 1.487 . S
C786 C785 1.487 . S
C786 C787 1.185 . S
C787 C784 1.482 . S
C787 C786 1.185 . S
H788 C768 0.932 . S
H789 C770 0.928 . S
H790 C771 0.932 . S
H791 C773 0.928 . S
C792 C793 1.332 . S
C792 C794 1.345 1_565 S
C792 H812 0.932 . S
C793 C792 1.332 . S
C793 C802 1.332 . S
C794 C792 1.345 1_545 S
C794 C806 1.334 . S
C794 H813 0.928 . S
C795 C796 1.332 . S
C795 C797 1.345 . S
C795 H814 0.932 . S
C796 C795 1.332 . S
C796 C804 1.332 . S
C797 C795 1.345 . S
C797 C809 1.334 . S
C797 H815 0.928 . S
H798 C802 0.932 . S
H799 C803 0.929 . S
H800 C804 0.932 . S
H801 C805 0.928 . S
C802 C793 1.332 . S
C802 H798 0.932 . S
C802 C803 1.345 . S
C803 H799 0.929 . S
C803 C802 1.345 . S
C803 C806 1.334 1_565 S
C804 C796 1.332 . S
C804 H800 0.932 . S
C804 C805 1.345 . S
C805 H801 0.928 . S
C805 C804 1.345 . S
C805 C809 1.334 . S
C806 C794 1.334 . S
C806 C803 1.334 1_545 S
C806 C807 1.487 . S
C807 C806 1.487 . S
C807 C808 1.185 . S
C808 C807 1.185 . S
C808 C811 1.482 . S
C809 C797 1.334 . S
C809 C805 1.334 . S
C809 C810 1.487 . S
C810 C809 1.487 . S
C810 C811 1.185 . S
C811 C808 1.482 . S
C811 C810 1.185 . S
H812 C792 0.932 . S
H813 C794 0.928 . S
H814 C795 0.932 . S
H815 C797 0.928 . S
C816 C817 1.332 . S
C816 C818 1.345 . S
C816 H836 0.932 . S
C817 C816 1.332 . S
C817 C826 1.332 . S
C818 C816 1.345 . S
C818 C830 1.334 . S
C818 H837 0.928 . S
C819 C820 1.332 . S
C819 C821 1.345 1_545 S
C819 H838 0.932 . S
C820 C819 1.332 . S
C820 C828 1.332 . S
C821 C819 1.345 1_565 S
C821 C833 1.334 . S
C821 H839 0.928 . S
H822 C826 0.932 . S
H823 C827 0.928 . S
H824 C828 0.932 . S
H825 C829 0.933 . S
C826 C817 1.332 . S
C826 H822 0.932 . S
C826 C827 1.345 . S
C827 H823 0.928 . S
C827 C826 1.345 . S
C827 C830 1.334 . S
C828 C820 1.332 . S
C828 H824 0.932 . S
C828 C829 1.327 1_545 S
C829 H825 0.933 . S
C829 C828 1.327 1_565 S
C829 C833 1.348 . S
C830 C818 1.334 . S
C830 C827 1.334 . S
C830 C831 1.487 . S
C831 C830 1.487 . S
C831 C832 1.185 . S
C832 C831 1.185 . S
C832 C835 1.482 . S
C833 C821 1.334 . S
C833 C829 1.348 . S
C833 C834 1.487 . S
C834 C833 1.487 . S
C834 C835 1.185 . S
C835 C832 1.482 . S
C835 C834 1.185 . S
H836 C816 0.932 . S
H837 C818 0.928 . S
H838 C819 0.932 . S
H839 C821 0.928 . S
C840 C841 1.332 . S
C840 C842 1.345 . S
C840 H860 0.932 . S
C841 C840 1.332 . S
C841 C850 1.332 . S
C842 C840 1.345 . S
C842 C854 1.334 . S
C842 H861 0.928 . S
C843 C844 1.332 . S
C843 C845 1.345 . S
C843 H862 0.932 . S
C844 C843 1.332 . S
C844 C852 1.332 . S
C845 C843 1.345 . S
C845 C857 1.334 . S
C845 H863 0.928 . S
H846 C850 0.932 . S
H847 C851 0.928 . S
H848 C852 0.932 . S
H849 C853 0.928 . S
C850 C841 1.332 . S
C850 H846 0.932 . S
C850 C851 1.345 . S
C851 H847 0.928 . S
C851 C850 1.345 . S
C851 C854 1.334 . S
C852 C844 1.332 . S
C852 H848 0.932 . S
C852 C853 1.345 . S
C853 H849 0.928 . S
C853 C852 1.345 . S
C853 C857 1.334 . S
C854 C842 1.334 . S
C854 C851 1.334 . S
C854 C855 1.487 . S
C855 C854 1.487 . S
C855 C856 1.185 . S
C856 C855 1.185 . S
C856 C859 1.482 . S
C857 C845 1.334 . S
C857 C853 1.334 . S
C857 C858 1.487 . S
C858 C857 1.487 . S
C858 C859 1.185 . S
C859 C856 1.482 . S
C859 C858 1.185 . S
H860 C840 0.932 . S
H861 C842 0.928 . S
H862 C843 0.932 . S
H863 C845 0.928 . S
C864 C865 1.332 . S
C864 C866 1.345 . S
C864 H884 0.932 . S
C865 C864 1.332 . S
C865 C874 1.332 . S
C866 C864 1.345 . S
C866 C878 1.334 1_554 S
C866 H885 0.928 . S
C867 C868 1.332 . S
C867 C869 1.345 . S
C867 H886 0.932 . S
C868 C867 1.332 . S
C868 C876 1.332 . S
C869 C867 1.345 . S
C869 C881 1.334 . S
C869 H887 0.928 . S
H870 C874 0.932 . S
H871 C875 0.928 . S
H872 C876 0.932 . S
H873 C877 0.928 . S
C874 C865 1.332 . S
C874 H870 0.932 . S
C874 C875 1.345 1_554 S
C875 H871 0.928 . S
C875 C874 1.345 1_556 S
C875 C878 1.334 . S
C876 C868 1.332 . S
C876 H872 0.932 . S
C876 C877 1.345 . S
C877 H873 0.928 . S
C877 C876 1.345 . S
C877 C881 1.334 . S
C878 C866 1.334 1_556 S
C878 C875 1.334 . S
C878 C879 1.487 . S
C879 C878 1.487 . S
C879 C880 1.185 . S
C880 C879 1.185 . S
C880 C883 1.482 . S
C881 C869 1.334 . S
C881 C877 1.334 . S
C881 C882 1.487 . S
C882 C881 1.487 . S
C882 C883 1.185 . S
C883 C880 1.482 . S
C883 C882 1.185 . S
H884 C864 0.932 . S
H885 C866 0.928 . S
H886 C867 0.932 . S
H887 C869 0.928 . S
C888 C889 1.332 . S
C888 C890 1.345 . S
C888 H908 0.932 . S
C889 C888 1.332 . S
C889 C898 1.332 . S
C890 C888 1.345 . S
C890 C902 1.334 . S
C890 H909 0.928 . S
C891 C892 1.332 . S
C891 C893 1.345 . S
C891 H910 0.932 . S
C892 C891 1.332 . S
C892 C900 1.332 . S
C893 C891 1.345 . S
C893 C905 1.334 . S
C893 H911 0.928 . S
H894 C898 0.932 . S
H895 C899 0.928 . S
H896 C900 0.932 . S
H897 C901 0.928 . S
C898 C889 1.332 . S
C898 H894 0.932 . S
C898 C899 1.345 . S
C899 H895 0.928 . S
C899 C898 1.345 . S
C899 C902 1.334 . S
C900 C892 1.332 . S
C900 H896 0.932 . S
C900 C901 1.345 . S
C901 H897 0.928 . S
C901 C900 1.345 . S
C901 C905 1.334 . S
C902 C890 1.334 . S
C902 C899 1.334 . S
C902 C903 1.487 . S
C903 C902 1.487 . S
C903 C904 1.185 . S
C904 C903 1.185 . S
C904 C907 1.482 . S
C905 C893 1.334 . S
C905 C901 1.334 . S
C905 C906 1.487 . S
C906 C905 1.487 . S
C906 C907 1.185 . S
C907 C904 1.482 . S
C907 C906 1.185 . S
H908 C888 0.932 . S
H909 C890 0.928 . S
H910 C891 0.932 . S
H911 C893 0.928 . S
C912 C913 1.332 . S
C912 C914 1.345 . S
C912 H932 0.932 . S
C913 C912 1.332 . S
C913 C922 1.332 . S
C914 C912 1.345 . S
C914 C926 1.334 1_556 S
C914 H933 0.928 1_556 S
C915 C916 1.332 . S
C915 C917 1.345 . S
C915 H934 0.932 . S
C916 C915 1.332 . S
C916 C924 1.332 . S
C917 C915 1.345 . S
C917 C929 1.334 . S
C917 H935 0.928 . S
H918 C922 0.932 . S
H919 C923 0.928 . S
H920 C924 0.932 . S
H921 C925 0.928 . S
C922 C913 1.332 . S
C922 H918 0.932 . S
C922 C923 1.345 1_556 S
C923 H919 0.928 . S
C923 C922 1.345 1_554 S
C923 C926 1.334 . S
C924 C916 1.332 . S
C924 H920 0.932 . S
C924 C925 1.345 . S
C925 H921 0.928 . S
C925 C924 1.345 . S
C925 C929 1.334 . S
C926 C914 1.334 1_554 S
C926 C923 1.334 . S
C926 C927 1.487 . S
C927 C926 1.487 . S
C927 C928 1.185 . S
C928 C927 1.185 . S
C928 C931 1.482 . S
C929 C917 1.334 . S
C929 C925 1.334 . S
C929 C930 1.487 . S
C930 C929 1.487 . S
C930 C931 1.185 . S
C931 C928 1.482 . S
C931 C930 1.185 . S
H932 C912 0.932 . S
H933 C914 0.928 1_554 S
H934 C915 0.932 . S
H935 C917 0.928 . S
C936 C937 1.332 . S
C936 C938 1.345 . S
C936 H956 0.932 . S
C937 C936 1.332 . S
C937 C946 1.332 . S
C938 C936 1.345 . S
C938 C950 1.334 . S
C938 H957 0.928 . S
C939 C940 1.332 . S
C939 C941 1.345 . S
C939 H958 0.932 . S
C940 C939 1.332 . S
C940 C948 1.332 . S
C941 C939 1.345 . S
C941 C953 1.334 . S
C941 H959 0.928 . S
H942 C946 0.932 . S
H943 C947 0.928 . S
H944 C948 0.932 . S
H945 C949 0.928 . S
C946 C937 1.332 . S
C946 H942 0.932 . S
C946 C947 1.345 . S
C947 H943 0.928 . S
C947 C946 1.345 . S
C947 C950 1.334 . S
C948 C940 1.332 . S
C948 H944 0.932 . S
C948 C949 1.345 . S
C949 H945 0.928 . S
C949 C948 1.345 . S
C949 C953 1.334 . S
C950 C938 1.334 . S
C950 C947 1.334 . S
C950 C951 1.487 . S
C951 C950 1.487 . S
C951 C952 1.185 . S
C952 C951 1.185 . S
C952 C955 1.482 . S
C953 C941 1.334 . S
C953 C949 1.334 . S
C953 C954 1.487 . S
C954 C953 1.487 . S
C954 C955 1.185 . S
C955 C952 1.482 . S
C955 C954 1.185 . S
H956 C936 0.932 . S
H957 C938 0.928 . S
H958 C939 0.932 . S
H959 C941 0.928 . S
C960 C961 1.332 . S
C960 C962 1.345 1_455 S
C960 H980 0.932 . S
C961 C960 1.332 . S
C961 C970 1.332 . S
C962 C960 1.345 1_655 S
C962 C974 1.334 . S
C962 H981 0.928 . S
C963 C964 1.332 . S
C963 C965 1.345 . S
C963 H982 0.932 . S
C964 C963 1.332 . S
C964 C972 1.332 . S
C965 C963 1.345 . S
C965 C977 1.334 . S
C965 H983 0.928 . S
H966 C970 0.932 . S
H967 C971 0.928 . S
H968 C972 0.932 . S
H969 C973 0.928 . S
C970 C961 1.332 . S
C970 H966 0.932 . S
C970 C971 1.345 1_455 S
C971 H967 0.928 . S
C971 C970 1.345 1_655 S
C971 C974 1.334 . S
C972 C964 1.332 . S
C972 H968 0.932 . S
C972 C973 1.345 . S
C973 H969 0.928 . S
C973 C972 1.345 . S
C973 C977 1.334 . S
C974 C962 1.334 . S
C974 C971 1.334 . S
C974 C975 1.487 . S
C975 C974 1.487 . S
C975 C976 1.185 . S
C976 C975 1.185 . S
C976 C979 1.482 . S
C977 C965 1.334 . S
C977 C973 1.334 . S
C977 C978 1.487 . S
C978 C977 1.487 . S
C978 C979 1.185 . S
C979 C976 1.482 . S
C979 C978 1.185 . S
H980 C960 0.932 . S
H981 C962 0.928 . S
H982 C963 0.932 . S
H983 C965 0.928 . S
C984 C985 1.332 . S
C984 C986 1.345 . S
C984 H1004 0.932 . S
C985 C984 1.332 . S
C985 C994 1.332 . S
C986 C984 1.345 . S
C986 C998 1.334 . S
C986 H1005 0.928 . S
C987 C988 1.332 . S
C987 C989 1.345 . S
C987 H1006 0.932 . S
C988 C987 1.332 . S
C988 C996 1.332 . S
C989 C987 1.345 . S
C989 C1001 1.334 . S
C989 H1007 0.928 . S
H990 C994 0.932 . S
H991 C995 0.928 . S
H992 C996 0.932 . S
H993 C997 0.928 . S
C994 C985 1.332 . S
C994 H990 0.932 . S
C994 C995 1.345 . S
C995 H991 0.928 . S
C995 C994 1.345 . S
C995 C998 1.334 . S
C996 C988 1.332 . S
C996 H992 0.932 . S
C996 C997 1.345 . S
C997 H993 0.928 . S
C997 C996 1.345 . S
C997 C1001 1.334 . S
C998 C986 1.334 . S
C998 C995 1.334 . S
C998 C999 1.487 . S
C999 C998 1.487 . S
C999 C1000 1.185 . S
C1000 C999 1.185 . S
C1000 C1003 1.482 . S
C1001 C989 1.334 . S
C1001 C997 1.334 . S
C1001 C1002 1.487 . S
C1002 C1001 1.487 . S
C1002 C1003 1.185 . S
C1003 C1000 1.482 . S
C1003 C1002 1.185 . S
H1004 C984 0.932 . S
H1005 C986 0.928 . S
H1006 C987 0.932 . S
H1007 C989 0.928 . S
C1008 C1009 1.332 . S
C1008 C1010 1.345 1_655 S
C1008 H1028 0.932 . S
C1009 C1008 1.332 . S
C1009 C1018 1.332 . S
C1010 C1008 1.345 1_455 S
C1010 C1022 1.334 . S
C1010 H1029 0.928 . S
C1011 C1012 1.332 . S
C1011 C1013 1.345 . S
C1011 H1030 0.932 . S
C1012 C1011 1.332 . S
C1012 C1020 1.332 . S
C1013 C1011 1.345 . S
C1013 C1025 1.334 . S
C1013 H1031 0.928 . S
H1014 C1018 0.932 . S
H1015 C1019 0.928 . S
H1016 C1020 0.932 . S
H1017 C1021 0.928 . S
C1018 C1009 1.332 . S
C1018 H1014 0.932 . S
C1018 C1019 1.345 1_655 S
C1019 H1015 0.928 . S
C1019 C1018 1.345 1_455 S
C1019 C1022 1.334 . S
C1020 C1012 1.332 . S
C1020 H1016 0.932 . S
C1020 C1021 1.345 . S
C1021 H1017 0.928 . S
C1021 C1020 1.345 . S
C1021 C1025 1.334 . S
C1022 C1010 1.334 . S
C1022 C1019 1.334 . S
C1022 C1023 1.487 . S
C1023 C1022 1.487 . S
C1023 C1024 1.185 . S
C1024 C1023 1.185 . S
C1024 C1027 1.482 . S
C1025 C1013 1.334 . S
C1025 C1021 1.334 . S
C1025 C1026 1.487 . S
C1026 C1025 1.487 . S
C1026 C1027 1.185 . S
C1027 C1024 1.482 . S
C1027 C1026 1.185 . S
H1028 C1008 0.932 . S
H1029 C1010 0.928 . S
H1030 C1011 0.932 . S
H1031 C1013 0.928 . S
C1032 C1033 1.332 . S
C1032 C1034 1.345 . S
C1032 H1052 0.932 . S
C1033 C1032 1.332 . S
C1033 C1042 1.332 . S
C1034 C1032 1.345 . S
C1034 C1046 1.334 . S
C1034 H1053 0.928 . S
C1035 C1036 1.332 . S
C1035 C1037 1.345 . S
C1035 H1054 0.932 . S
C1036 C1035 1.332 . S
C1036 C1044 1.332 . S
C1037 C1035 1.345 . S
C1037 C1049 1.334 . S
C1037 H1055 0.928 . S
H1038 C1042 0.932 . S
H1039 C1043 0.928 . S
H1040 C1044 0.932 . S
H1041 C1045 0.928 . S
C1042 C1033 1.332 . S
C1042 H1038 0.932 . S
C1042 C1043 1.345 . S
C1043 H1039 0.928 . S
C1043 C1042 1.345 . S
C1043 C1046 1.334 . S
C1044 C1036 1.332 . S
C1044 H1040 0.932 . S
C1044 C1045 1.345 . S
C1045 H1041 0.928 . S
C1045 C1044 1.345 . S
C1045 C1049 1.334 . S
C1046 C1034 1.334 . S
C1046 C1043 1.334 . S
C1046 C1047 1.487 . S
C1047 C1046 1.487 . S
C1047 C1048 1.185 . S
C1048 C1047 1.185 . S
C1048 C1051 1.482 . S
C1049 C1037 1.334 . S
C1049 C1045 1.334 . S
C1049 C1050 1.487 . S
C1050 C1049 1.487 . S
C1050 C1051 1.185 . S
C1051 C1048 1.482 . S
C1051 C1050 1.185 . S
H1052 C1032 0.932 . S
H1053 C1034 0.928 . S
H1054 C1035 0.932 . S
H1055 C1037 0.928 . S
C1056 C1057 1.332 . S
C1056 C1058 1.345 . S
C1056 H1076 0.932 . S
C1057 C1056 1.332 . S
C1057 C1066 1.332 . S
C1058 C1056 1.345 . S
C1058 C1070 1.334 . S
C1058 H1077 0.928 . S
C1059 C1060 1.332 . S
C1059 C1061 1.345 . S
C1059 H1078 0.932 . S
C1060 C1059 1.332 . S
C1060 C1068 1.332 . S
C1061 C1059 1.345 . S
C1061 C1073 1.334 . S
C1061 H1079 0.928 . S
H1062 C1066 0.932 . S
H1063 C1067 0.928 . S
H1064 C1068 0.932 . S
H1065 C1069 0.928 . S
C1066 C1057 1.332 . S
C1066 H1062 0.932 . S
C1066 C1067 1.345 . S
C1067 H1063 0.928 . S
C1067 C1066 1.345 . S
C1067 C1070 1.334 . S
C1068 C1060 1.332 . S
C1068 H1064 0.932 . S
C1068 C1069 1.345 . S
C1069 H1065 0.928 . S
C1069 C1068 1.345 . S
C1069 C1073 1.334 . S
C1070 C1058 1.334 . S
C1070 C1067 1.334 . S
C1070 C1071 1.487 . S
C1071 C1070 1.487 . S
C1071 C1072 1.185 . S
C1072 C1071 1.185 . S
C1072 C1075 1.482 . S
C1073 C1061 1.334 . S
C1073 C1069 1.334 . S
C1073 C1074 1.487 . S
C1074 C1073 1.487 . S
C1074 C1075 1.185 . S
C1075 C1072 1.482 . S
C1075 C1074 1.185 . S
H1076 C1056 0.932 . S
H1077 C1058 0.928 . S
H1078 C1059 0.932 . S
H1079 C1061 0.928 . S
C1080 C1081 1.332 . S
C1080 C1082 1.345 . S
C1080 H1100 0.932 . S
C1081 C1080 1.332 . S
C1081 C1090 1.332 . S
C1082 C1080 1.345 . S
C1082 C1094 1.334 1_545 S
C1082 H1101 0.931 . S
C1083 C1084 1.332 . S
C1083 C1085 1.345 . S
C1083 H1102 0.932 . S
C1084 C1083 1.332 . S
C1084 C1092 1.332 . S
C1085 C1083 1.345 . S
C1085 C1097 1.334 . S
C1085 H1103 0.928 . S
H1086 C1090 0.932 . S
H1087 C1091 0.928 . S
H1088 C1092 0.932 . S
H1089 C1093 0.928 . S
C1090 C1081 1.332 . S
C1090 H1086 0.932 . S
C1090 C1091 1.345 1_545 S
C1091 H1087 0.928 . S
C1091 C1090 1.345 1_565 S
C1091 C1094 1.334 . S
C1092 C1084 1.332 . S
C1092 H1088 0.932 . S
C1092 C1093 1.345 . S
C1093 H1089 0.928 . S
C1093 C1092 1.345 . S
C1093 C1097 1.334 . S
C1094 C1082 1.334 1_565 S
C1094 C1091 1.334 . S
C1094 C1095 1.487 . S
C1095 C1094 1.487 . S
C1095 C1096 1.185 . S
C1096 C1095 1.185 . S
C1096 C1099 1.482 . S
C1097 C1085 1.334 . S
C1097 C1093 1.334 . S
C1097 C1098 1.487 . S
C1098 C1097 1.487 . S
C1098 C1099 1.185 . S
C1099 C1096 1.482 . S
C1099 C1098 1.185 . S
H1100 C1080 0.932 . S
H1101 C1082 0.931 . S
H1102 C1083 0.932 . S
H1103 C1085 0.928 . S
C1104 C1105 1.332 . S
C1104 C1106 1.345 . S
C1104 H1124 0.932 . S
C1105 C1104 1.332 . S
C1105 C1114 1.332 . S
C1106 C1104 1.345 . S
C1106 C1118 1.334 . S
C1106 H1125 0.928 . S
C1107 C1108 1.332 . S
C1107 C1109 1.345 1_565 S
C1107 H1126 0.932 . S
C1108 C1107 1.332 . S
C1108 C1116 1.332 . S
C1109 C1107 1.345 1_545 S
C1109 C1121 1.334 . S
C1109 H1127 0.928 . S
H1110 C1114 0.932 . S
H1111 C1115 0.928 . S
H1112 C1116 0.932 . S
H1113 C1117 0.925 1_545 S
C1114 C1105 1.332 . S
C1114 H1110 0.932 . S
C1114 C1115 1.345 . S
C1115 H1111 0.928 . S
C1115 C1114 1.345 . S
C1115 C1118 1.334 . S
C1116 C1108 1.332 . S
C1116 H1112 0.932 . S
C1116 C1117 1.371 . S
C1117 H1113 0.925 1_565 S
C1117 C1116 1.371 . S
C1117 C1121 1.312 1_565 S
C1118 C1106 1.334 . S
C1118 C1115 1.334 . S
C1118 C1119 1.487 . S
C1119 C1118 1.487 . S
C1119 C1120 1.185 . S
C1120 C1119 1.185 . S
C1120 C1123 1.482 . S
C1121 C1109 1.334 . S
C1121 C1117 1.312 1_545 S
C1121 C1122 1.487 . S
C1122 C1121 1.487 . S
C1122 C1123 1.185 . S
C1123 C1120 1.482 . S
C1123 C1122 1.185 . S
H1124 C1104 0.932 . S
H1125 C1106 0.928 . S
H1126 C1107 0.932 . S
H1127 C1109 0.928 . S
C1128 C1129 1.332 . S
C1128 C1130 1.345 . S
C1128 H1148 0.932 . S
C1129 C1128 1.332 . S
C1129 C1138 1.332 . S
C1130 C1128 1.345 . S
C1130 C1142 1.334 . S
C1130 H1149 0.928 . S
C1131 C1132 1.332 . S
C1131 C1133 1.345 . S
C1131 H1150 0.932 . S
C1132 C1131 1.332 . S
C1132 C1140 1.332 . S
C1133 C1131 1.345 . S
C1133 C1145 1.334 . S
C1133 H1151 0.928 . S
H1134 C1138 0.932 . S
H1135 C1139 0.928 . S
H1136 C1140 0.932 . S
H1137 C1141 0.928 . S
C1138 C1129 1.332 . S
C1138 H1134 0.932 . S
C1138 C1139 1.345 . S
C1139 H1135 0.928 . S
C1139 C1138 1.345 . S
C1139 C1142 1.334 . S
C1140 C1132 1.332 . S
C1140 H1136 0.932 . S
C1140 C1141 1.345 . S
C1141 H1137 0.928 . S
C1141 C1140 1.345 . S
C1141 C1145 1.334 . S
C1142 C1130 1.334 . S
C1142 C1139 1.334 . S
C1142 C1143 1.487 . S
C1143 C1142 1.487 . S
C1143 C1144 1.185 . S
C1144 C1143 1.185 . S
C1144 C1147 1.482 . S
C1145 C1133 1.334 . S
C1145 C1141 1.334 . S
C1145 C1146 1.487 . S
C1146 C1145 1.487 . S
C1146 C1147 1.185 . S
C1147 C1144 1.482 . S
C1147 C1146 1.185 . S
H1148 C1128 0.932 . S
H1149 C1130 0.928 . S
H1150 C1131 0.932 . S
H1151 C1133 0.928 . S
C1152 C1153 1.332 . S
C1152 C1154 1.345 . S
C1152 H1172 0.932 . S
C1153 C1152 1.332 . S
C1153 C1162 1.332 . S
C1154 C1152 1.345 . S
C1154 C1166 1.334 . S
C1154 H1173 0.928 . S
C1155 C1156 1.332 . S
C1155 C1157 1.345 1_556 S
C1155 H1174 0.932 . S
C1156 C1155 1.332 . S
C1156 C1164 1.332 . S
C1157 C1155 1.345 1_554 S
C1157 C1169 1.334 . S
C1157 H1175 0.928 . S
H1158 C1162 0.932 . S
H1159 C1163 0.928 . S
H1160 C1164 0.932 . S
H1161 C1165 0.928 . S
C1162 C1153 1.332 . S
C1162 H1158 0.932 . S
C1162 C1163 1.345 . S
C1163 H1159 0.928 . S
C1163 C1162 1.345 . S
C1163 C1166 1.334 . S
C1164 C1156 1.332 . S
C1164 H1160 0.932 . S
C1164 C1165 1.345 1_556 S
C1165 H1161 0.928 . S
C1165 C1164 1.345 1_554 S
C1165 C1169 1.334 . S
C1166 C1154 1.334 . S
C1166 C1163 1.334 . S
C1166 C1167 1.487 . S
C1167 C1166 1.487 . S
C1167 C1168 1.185 . S
C1168 C1167 1.185 . S
C1168 C1171 1.482 . S
C1169 C1157 1.334 . S
C1169 C1165 1.334 . S
C1169 C1170 1.487 . S
C1170 C1169 1.487 . S
C1170 C1171 1.185 . S
C1171 C1168 1.482 . S
C1171 C1170 1.185 . S
H1172 C1152 0.932 . S
H1173 C1154 0.928 . S
H1174 C1155 0.932 . S
H1175 C1157 0.928 . S
C1176 C1177 1.332 . S
C1176 C1178 1.345 . S
C1176 H1196 0.932 . S
C1177 C1176 1.332 . S
C1177 C1186 1.332 . S
C1178 C1176 1.345 . S
C1178 C1190 1.334 . S
C1178 H1197 0.928 . S
C1179 C1180 1.332 . S
C1179 C1181 1.345 . S
C1179 H1198 0.932 . S
C1180 C1179 1.332 . S
C1180 C1188 1.332 . S
C1181 C1179 1.345 . S
C1181 C1193 1.334 . S
C1181 H1199 0.928 . S
H1182 C1186 0.932 . S
H1183 C1187 0.928 . S
H1184 C1188 0.932 . S
H1185 C1189 0.928 . S
C1186 C1177 1.332 . S
C1186 H1182 0.932 . S
C1186 C1187 1.345 . S
C1187 H1183 0.928 . S
C1187 C1186 1.345 . S
C1187 C1190 1.334 . S
C1188 C1180 1.332 . S
C1188 H1184 0.932 . S
C1188 C1189 1.345 . S
C1189 H1185 0.928 . S
C1189 C1188 1.345 . S
C1189 C1193 1.334 . S
C1190 C1178 1.334 . S
C1190 C1187 1.334 . S
C1190 C1191 1.487 . S
C1191 C1190 1.487 . S
C1191 C1192 1.185 . S
C1192 C1191 1.185 . S
C1192 C1195 1.482 . S
C1193 C1181 1.334 . S
C1193 C1189 1.334 . S
C1193 C1194 1.487 . S
C1194 C1193 1.487 . S
C1194 C1195 1.185 . S
C1195 C1192 1.482 . S
C1195 C1194 1.185 . S
H1196 C1176 0.932 . S
H1197 C1178 0.928 . S
H1198 C1179 0.932 . S
H1199 C1181 0.928 . S
C1200 C1201 1.332 . S
C1200 C1202 1.345 . S
C1200 H1220 0.932 . S
C1201 C1200 1.332 . S
C1201 C1210 1.332 . S
C1202 C1200 1.345 . S
C1202 C1214 1.334 1_554 S
C1202 H1221 0.929 . S
C1203 C1204 1.332 . S
C1203 C1205 1.345 . S
C1203 H1222 0.932 . S
C1204 C1203 1.332 . S
C1204 C1212 1.332 . S
C1205 C1203 1.345 . S
C1205 C1217 1.334 . S
C1205 H1223 0.928 . S
H1206 C1210 0.932 . S
H1207 C1211 0.928 . S
H1208 C1212 0.932 . S
H1209 C1213 0.928 . S
C1210 C1201 1.332 . S
C1210 H1206 0.932 . S
C1210 C1211 1.345 1_554 S
C1211 H1207 0.928 . S
C1211 C1210 1.345 1_556 S
C1211 C1214 1.334 . S
C1212 C1204 1.332 . S
C1212 H1208 0.932 . S
C1212 C1213 1.345 . S
C1213 H1209 0.928 . S
C1213 C1212 1.345 . S
C1213 C1217 1.334 . S
C1214 C1202 1.334 1_556 S
C1214 C1211 1.334 . S
C1214 C1215 1.487 . S
C1215 C1214 1.487 . S
C1215 C1216 1.185 . S
C1216 C1215 1.185 . S
C1216 C1219 1.482 . S
C1217 C1205 1.334 . S
C1217 C1213 1.334 . S
C1217 C1218 1.487 . S
C1218 C1217 1.487 . S
C1218 C1219 1.185 . S
C1219 C1216 1.482 . S
C1219 C1218 1.185 . S
H1220 C1200 0.932 . S
H1221 C1202 0.929 . S
H1222 C1203 0.932 . S
H1223 C1205 0.928 . S
C1224 C1225 1.332 . S
C1224 C1226 1.345 . S
C1224 H1244 0.932 . S
C1225 C1224 1.332 . S
C1225 C1234 1.332 . S
C1226 C1224 1.345 . S
C1226 C1238 1.334 . S
C1226 H1245 0.928 . S
C1227 C1228 1.332 . S
C1227 C1229 1.345 . S
C1227 H1246 0.932 . S
C1228 C1227 1.332 . S
C1228 C1236 1.332 . S
C1229 C1227 1.345 . S
C1229 C1241 1.334 . S
C1229 H1247 0.928 . S
H1230 C1234 0.932 . S
H1231 C1235 0.928 . S
H1232 C1236 0.932 . S
H1233 C1237 0.928 . S
C1234 C1225 1.332 . S
C1234 H1230 0.932 . S
C1234 C1235 1.345 . S
C1235 H1231 0.928 . S
C1235 C1234 1.345 . S
C1235 C1238 1.334 . S
C1236 C1228 1.332 . S
C1236 H1232 0.932 . S
C1236 C1237 1.345 . S
C1237 H1233 0.928 . S
C1237 C1236 1.345 . S
C1237 C1241 1.334 . S
C1238 C1226 1.334 . S
C1238 C1235 1.334 . S
C1238 C1239 1.487 . S
C1239 C1238 1.487 . S
C1239 C1240 1.185 . S
C1240 C1239 1.185 . S
C1240 C1243 1.482 . S
C1241 C1229 1.334 . S
C1241 C1237 1.334 . S
C1241 C1242 1.487 . S
C1242 C1241 1.487 . S
C1242 C1243 1.185 . S
C1243 C1240 1.482 . S
C1243 C1242 1.185 . S
H1244 C1224 0.932 . S
H1245 C1226 0.928 . S
H1246 C1227 0.932 . S
H1247 C1229 0.928 . S
C1248 C1249 1.332 . S
C1248 C1250 1.345 1_655 S
C1248 H1268 0.932 . S
C1249 C1248 1.332 . S
C1249 C1258 1.332 . S
C1250 C1248 1.345 1_455 S
C1250 C1262 1.334 . S
C1250 H1269 0.928 . S
C1251 C1252 1.332 . S
C1251 C1253 1.345 . S
C1251 H1270 0.932 . S
C1252 C1251 1.332 . S
C1252 C1260 1.332 . S
C1253 C1251 1.345 . S
C1253 C1265 1.334 . S
C1253 H1271 0.928 . S
H1254 C1258 0.932 . S
H1255 C1259 0.928 . S
H1256 C1260 0.932 . S
H1257 C1261 0.928 . S
C1258 C1249 1.332 . S
C1258 H1254 0.932 . S
C1258 C1259 1.345 1_655 S
C1259 H1255 0.928 . S
C1259 C1258 1.345 1_455 S
C1259 C1262 1.334 . S
C1260 C1252 1.332 . S
C1260 H1256 0.932 . S
C1260 C1261 1.345 . S
C1261 H1257 0.928 . S
C1261 C1260 1.345 . S
C1261 C1265 1.334 . S
C1262 C1250 1.334 . S
C1262 C1259 1.334 . S
C1262 C1263 1.487 . S
C1263 C1262 1.487 . S
C1263 C1264 1.185 . S
C1264 C1263 1.185 . S
C1264 C1267 1.482 . S
C1265 C1253 1.334 . S
C1265 C1261 1.334 . S
C1265 C1266 1.487 . S
C1266 C1265 1.487 . S
C1266 C1267 1.185 . S
C1267 C1264 1.482 . S
C1267 C1266 1.185 . S
H1268 C1248 0.932 . S
H1269 C1250 0.928 . S
H1270 C1251 0.932 . S
H1271 C1253 0.928 . S
C1272 C1273 1.332 . S
C1272 C1274 1.345 . S
C1272 H1292 0.932 . S
C1273 C1272 1.332 . S
C1273 C1282 1.332 . S
C1274 C1272 1.345 . S
C1274 C1286 1.334 . S
C1274 H1293 0.928 . S
C1275 C1276 1.332 . S
C1275 C1277 1.345 . S
C1275 H1294 0.932 . S
C1276 C1275 1.332 . S
C1276 C1284 1.332 . S
C1277 C1275 1.345 . S
C1277 C1289 1.334 . S
C1277 H1295 0.928 . S
H1278 C1282 0.932 . S
H1279 C1283 0.928 . S
H1280 C1284 0.932 . S
H1281 C1285 0.928 . S
C1282 C1273 1.332 . S
C1282 H1278 0.932 . S
C1282 C1283 1.345 . S
C1283 H1279 0.928 . S
C1283 C1282 1.345 . S
C1283 C1286 1.334 . S
C1284 C1276 1.332 . S
C1284 H1280 0.932 . S
C1284 C1285 1.345 . S
C1285 H1281 0.928 . S
C1285 C1284 1.345 . S
C1285 C1289 1.334 . S
C1286 C1274 1.334 . S
C1286 C1283 1.334 . S
C1286 C1287 1.487 . S
C1287 C1286 1.487 . S
C1287 C1288 1.185 . S
C1288 C1287 1.185 . S
C1288 C1291 1.482 . S
C1289 C1277 1.334 . S
C1289 C1285 1.334 . S
C1289 C1290 1.487 . S
C1290 C1289 1.487 . S
C1290 C1291 1.185 . S
C1291 C1288 1.482 . S
C1291 C1290 1.185 . S
H1292 C1272 0.932 . S
H1293 C1274 0.928 . S
H1294 C1275 0.932 . S
H1295 C1277 0.928 . S
C1296 C1297 1.332 . S
C1296 C1298 1.345 . S
C1296 H1316 0.932 . S
C1297 C1296 1.332 . S
C1297 C1306 1.332 . S
C1298 C1296 1.345 . S
C1298 C1310 1.334 . S
C1298 H1317 0.928 . S
C1299 C1300 1.332 . S
C1299 C1301 1.345 1_455 S
C1299 H1318 0.932 . S
C1300 C1299 1.332 . S
C1300 C1308 1.332 . S
C1301 C1299 1.345 1_655 S
C1301 C1313 1.334 . S
C1301 H1319 0.928 . S
H1302 C1306 0.932 . S
H1303 C1307 0.928 . S
H1304 C1308 0.932 . S
H1305 C1309 0.928 . S
C1306 C1297 1.332 . S
C1306 H1302 0.932 . S
C1306 C1307 1.345 . S
C1307 H1303 0.928 . S
C1307 C1306 1.345 . S
C1307 C1310 1.334 . S
C1308 C1300 1.332 . S
C1308 H1304 0.932 . S
C1308 C1309 1.345 1_455 S
C1309 H1305 0.928 . S
C1309 C1308 1.345 1_655 S
C1309 C1313 1.334 . S
C1310 C1298 1.334 . S
C1310 C1307 1.334 . S
C1310 C1311 1.487 . S
C1311 C1310 1.487 . S
C1311 C1312 1.185 . S
C1312 C1311 1.185 . S
C1312 C1315 1.482 . S
C1313 C1301 1.334 . S
C1313 C1309 1.334 . S
C1313 C1314 1.487 . S
C1314 C1313 1.487 . S
C1314 C1315 1.185 . S
C1315 C1312 1.482 . S
C1315 C1314 1.185 . S
H1316 C1296 0.932 . S
H1317 C1298 0.928 . S
H1318 C1299 0.932 . S
H1319 C1301 0.928 . S
C1320 C1321 1.332 . S
C1320 C1322 1.345 . S
C1320 H1340 0.932 . S
C1321 C1320 1.332 . S
C1321 C1330 1.332 . S
C1322 C1320 1.345 . S
C1322 C1334 1.334 . S
C1322 H1341 0.928 . S
C1323 C1324 1.332 . S
C1323 C1325 1.345 . S
C1323 H1342 0.932 . S
C1324 C1323 1.332 . S
C1324 C1332 1.332 . S
C1325 C1323 1.345 . S
C1325 C1337 1.334 . S
C1325 H1343 0.928 . S
H1326 C1330 0.932 . S
H1327 C1331 0.928 . S
H1328 C1332 0.932 . S
H1329 C1333 0.928 . S
C1330 C1321 1.332 . S
C1330 H1326 0.932 . S
C1330 C1331 1.345 . S
C1331 H1327 0.928 . S
C1331 C1330 1.345 . S
C1331 C1334 1.334 . S
C1332 C1324 1.332 . S
C1332 H1328 0.932 . S
C1332 C1333 1.345 . S
C1333 H1329 0.928 . S
C1333 C1332 1.345 . S
C1333 C1337 1.334 . S
C1334 C1322 1.334 . S
C1334 C1331 1.334 . S
C1334 C1335 1.487 . S
C1335 C1334 1.487 . S
C1335 C1336 1.185 . S
C1336 C1335 1.185 . S
C1336 C1339 1.482 . S
C1337 C1325 1.334 . S
C1337 C1333 1.334 . S
C1337 C1338 1.487 . S
C1338 C1337 1.487 . S
C1338 C1339 1.185 . S
C1339 C1336 1.482 . S
C1339 C1338 1.185 . S
H1340 C1320 0.932 . S
H1341 C1322 0.928 . S
H1342 C1323 0.932 . S
H1343 C1325 0.928 . S
C1344 C1345 1.332 . S
C1344 C1346 1.345 . S
C1344 H1364 0.932 . S
C1345 C1344 1.332 . S
C1345 C1354 1.332 . S
C1346 C1344 1.345 . S
C1346 C1358 1.334 . S
C1346 H1365 0.928 . S
C1347 C1348 1.332 . S
C1347 C1349 1.345 . S
C1347 H1366 0.932 . S
C1348 C1347 1.332 . S
C1348 C1356 1.332 . S
C1349 C1347 1.345 . S
C1349 C1361 1.334 . S
C1349 H1367 0.928 . S
H1350 C1354 0.932 . S
H1351 C1355 0.928 . S
H1352 C1356 0.932 . S
H1353 C1357 0.928 . S
C1354 C1345 1.332 . S
C1354 H1350 0.932 . S
C1354 C1355 1.345 . S
C1355 H1351 0.928 . S
C1355 C1354 1.345 . S
C1355 C1358 1.334 . S
C1356 C1348 1.332 . S
C1356 H1352 0.932 . S
C1356 C1357 1.345 . S
C1357 H1353 0.928 . S
C1357 C1356 1.345 . S
C1357 C1361 1.334 . S
C1358 C1346 1.334 . S
C1358 C1355 1.334 . S
C1358 C1359 1.487 . S
C1359 C1358 1.487 . S
C1359 C1360 1.185 . S
C1360 C1359 1.185 . S
C1360 C1363 1.482 . S
C1361 C1349 1.334 . S
C1361 C1357 1.334 . S
C1361 C1362 1.487 . S
C1362 C1361 1.487 . S
C1362 C1363 1.185 . S
C1363 C1360 1.482 . S
C1363 C1362 1.185 . S
H1364 C1344 0.932 . S
H1365 C1346 0.928 . S
H1366 C1347 0.932 . S
H1367 C1349 0.928 . S
C1368 C1369 1.332 . S
C1368 C1370 1.345 . S
C1368 H1388 0.932 . S
C1369 C1368 1.332 . S
C1369 C1378 1.332 . S
C1370 C1368 1.345 . S
C1370 C1382 1.334 . S
C1370 H1389 0.928 . S
C1371 C1372 1.332 . S
C1371 C1373 1.345 . S
C1371 H1390 0.932 . S
C1372 C1371 1.332 . S
C1372 C1380 1.332 . S
C1373 C1371 1.345 . S
C1373 C1385 1.334 . S
C1373 H1391 0.928 . S
H1374 C1378 0.932 . S
H1375 C1379 0.928 . S
H1376 C1380 0.932 . S
H1377 C1381 0.928 . S
C1378 C1369 1.332 . S
C1378 H1374 0.932 . S
C1378 C1379 1.345 . S
C1379 H1375 0.928 . S
C1379 C1378 1.345 . S
C1379 C1382 1.334 . S
C1380 C1372 1.332 . S
C1380 H1376 0.932 . S
C1380 C1381 1.345 . S
C1381 H1377 0.928 . S
C1381 C1380 1.345 . S
C1381 C1385 1.334 . S
C1382 C1370 1.334 . S
C1382 C1379 1.334 . S
C1382 C1383 1.487 . S
C1383 C1382 1.487 . S
C1383 C1384 1.185 . S
C1384 C1383 1.185 . S
C1384 C1387 1.482 . S
C1385 C1373 1.334 . S
C1385 C1381 1.334 . S
C1385 C1386 1.487 . S
C1386 C1385 1.487 . S
C1386 C1387 1.185 . S
C1387 C1384 1.482 . S
C1387 C1386 1.185 . S
H1388 C1368 0.932 . S
H1389 C1370 0.928 . S
H1390 C1371 0.932 . S
H1391 C1373 0.928 . S
C1392 C1393 1.332 . S
C1392 C1394 1.345 . S
C1392 H1412 0.932 . S
C1393 C1392 1.332 . S
C1393 C1402 1.332 . S
C1394 C1392 1.345 . S
C1394 C1406 1.334 . S
C1394 H1413 0.928 . S
C1395 C1396 1.332 . S
C1395 C1397 1.345 . S
C1395 H1414 0.932 . S
C1396 C1395 1.332 . S
C1396 C1404 1.332 . S
C1397 C1395 1.345 . S
C1397 C1409 1.334 . S
C1397 H1415 0.928 . S
H1398 C1402 0.932 . S
H1399 C1403 0.928 . S
H1400 C1404 0.932 . S
H1401 C1405 0.928 . S
C1402 C1393 1.332 . S
C1402 H1398 0.932 . S
C1402 C1403 1.345 . S
C1403 H1399 0.928 . S
C1403 C1402 1.345 . S
C1403 C1406 1.334 . S
C1404 C1396 1.332 . S
C1404 H1400 0.932 . S
C1404 C1405 1.345 . S
C1405 H1401 0.928 . S
C1405 C1404 1.345 . S
C1405 C1409 1.334 . S
C1406 C1394 1.334 . S
C1406 C1403 1.334 . S
C1406 C1407 1.487 . S
C1407 C1406 1.487 . S
C1407 C1408 1.185 . S
C1408 C1407 1.185 . S
C1408 C1411 1.482 . S
C1409 C1397 1.334 . S
C1409 C1405 1.334 . S
C1409 C1410 1.487 . S
C1410 C1409 1.487 . S
C1410 C1411 1.185 . S
C1411 C1408 1.482 . S
C1411 C1410 1.185 . S
H1412 C1392 0.932 . S
H1413 C1394 0.928 . S
H1414 C1395 0.932 . S
H1415 C1397 0.928 . S
C1416 C1417 1.332 . S
C1416 C1418 1.345 . S
C1416 H1436 0.932 . S
C1417 C1416 1.332 . S
C1417 C1426 1.332 . S
C1418 C1416 1.345 . S
C1418 C1430 1.334 . S
C1418 H1437 0.928 . S
C1419 C1420 1.332 . S
C1419 C1421 1.345 . S
C1419 H1438 0.932 . S
C1420 C1419 1.332 . S
C1420 C1428 1.332 . S
C1421 C1419 1.345 . S
C1421 C1433 1.334 . S
C1421 H1439 0.928 . S
H1422 C1426 0.932 . S
H1423 C1427 0.928 . S
H1424 C1428 0.932 . S
H1425 C1429 0.928 . S
C1426 C1417 1.332 . S
C1426 H1422 0.932 . S
C1426 C1427 1.345 . S
C1427 H1423 0.928 . S
C1427 C1426 1.345 . S
C1427 C1430 1.334 . S
C1428 C1420 1.332 . S
C1428 H1424 0.932 . S
C1428 C1429 1.345 . S
C1429 H1425 0.928 . S
C1429 C1428 1.345 . S
C1429 C1433 1.334 . S
C1430 C1418 1.334 . S
C1430 C1427 1.334 . S
C1430 C1431 1.487 . S
C1431 C1430 1.487 . S
C1431 C1432 1.185 . S
C1432 C1431 1.185 . S
C1432 C1435 1.482 . S
C1433 C1421 1.334 . S
C1433 C1429 1.334 . S
C1433 C1434 1.487 . S
C1434 C1433 1.487 . S
C1434 C1435 1.185 . S
C1435 C1432 1.482 . S
C1435 C1434 1.185 . S
H1436 C1416 0.932 . S
H1437 C1418 0.928 . S
H1438 C1419 0.932 . S
H1439 C1421 0.928 . S
C1440 C1441 1.332 . S
C1440 C1442 1.345 . S
C1440 H1460 0.932 . S
C1441 C1440 1.332 . S
C1441 C1450 1.332 . S
C1442 C1440 1.345 . S
C1442 C1454 1.334 . S
C1442 H1461 0.928 . S
C1443 C1444 1.332 . S
C1443 C1445 1.345 . S
C1443 H1462 0.932 . S
C1444 C1443 1.332 . S
C1444 C1452 1.332 . S
C1445 C1443 1.345 . S
C1445 C1457 1.334 . S
C1445 H1463 0.928 . S
H1446 C1450 0.932 . S
H1447 C1451 0.928 . S
H1448 C1452 0.932 . S
H1449 C1453 0.928 . S
C1450 C1441 1.332 . S
C1450 H1446 0.932 . S
C1450 C1451 1.345 . S
C1451 H1447 0.928 . S
C1451 C1450 1.345 . S
C1451 C1454 1.334 . S
C1452 C1444 1.332 . S
C1452 H1448 0.932 . S
C1452 C1453 1.345 . S
C1453 H1449 0.928 . S
C1453 C1452 1.345 . S
C1453 C1457 1.334 . S
C1454 C1442 1.334 . S
C1454 C1451 1.334 . S
C1454 C1455 1.487 . S
C1455 C1454 1.487 . S
C1455 C1456 1.185 . S
C1456 C1455 1.185 . S
C1456 C1459 1.482 . S
C1457 C1445 1.334 . S
C1457 C1453 1.334 . S
C1457 C1458 1.487 . S
C1458 C1457 1.487 . S
C1458 C1459 1.185 . S
C1459 C1456 1.482 . S
C1459 C1458 1.185 . S
H1460 C1440 0.932 . S
H1461 C1442 0.928 . S
H1462 C1443 0.932 . S
H1463 C1445 0.928 . S
C1464 C1465 1.332 . S
C1464 C1466 1.345 . S
C1464 H1484 0.932 . S
C1465 C1464 1.332 . S
C1465 C1474 1.332 . S
C1466 C1464 1.345 . S
C1466 C1478 1.334 . S
C1466 H1485 0.928 . S
C1467 C1468 1.332 . S
C1467 C1469 1.345 . S
C1467 H1486 0.932 . S
C1468 C1467 1.332 . S
C1468 C1476 1.332 . S
C1469 C1467 1.345 . S
C1469 C1481 1.334 . S
C1469 H1487 0.928 . S
H1470 C1474 0.932 . S
H1471 C1475 0.928 . S
H1472 C1476 0.932 . S
H1473 C1477 0.928 . S
C1474 C1465 1.332 . S
C1474 H1470 0.932 . S
C1474 C1475 1.345 . S
C1475 H1471 0.928 . S
C1475 C1474 1.345 . S
C1475 C1478 1.334 . S
C1476 C1468 1.332 . S
C1476 H1472 0.932 . S
C1476 C1477 1.345 . S
C1477 H1473 0.928 . S
C1477 C1476 1.345 . S
C1477 C1481 1.334 . S
C1478 C1466 1.334 . S
C1478 C1475 1.334 . S
C1478 C1479 1.487 . S
C1479 C1478 1.487 . S
C1479 C1480 1.185 . S
C1480 C1479 1.185 . S
C1480 C1483 1.482 . S
C1481 C1469 1.334 . S
C1481 C1477 1.334 . S
C1481 C1482 1.487 . S
C1482 C1481 1.487 . S
C1482 C1483 1.185 . S
C1483 C1480 1.482 . S
C1483 C1482 1.185 . S
H1484 C1464 0.932 . S
H1485 C1466 0.928 . S
H1486 C1467 0.932 . S
H1487 C1469 0.928 . S
C1488 C1489 1.332 . S
C1488 C1490 1.345 . S
C1488 H1508 0.932 . S
C1489 C1488 1.332 . S
C1489 C1498 1.332 . S
C1490 C1488 1.345 . S
C1490 C1502 1.334 . S
C1490 H1509 0.928 . S
C1491 C1492 1.332 . S
C1491 C1493 1.345 . S
C1491 H1510 0.932 . S
C1492 C1491 1.332 . S
C1492 C1500 1.332 . S
C1493 C1491 1.345 . S
C1493 C1505 1.334 . S
C1493 H1511 0.928 . S
H1494 C1498 0.932 . S
H1495 C1499 0.928 . S
H1496 C1500 0.932 . S
H1497 C1501 0.928 . S
C1498 C1489 1.332 . S
C1498 H1494 0.932 . S
C1498 C1499 1.345 . S
C1499 H1495 0.928 . S
C1499 C1498 1.345 . S
C1499 C1502 1.334 . S
C1500 C1492 1.332 . S
C1500 H1496 0.932 . S
C1500 C1501 1.345 . S
C1501 H1497 0.928 . S
C1501 C1500 1.345 . S
C1501 C1505 1.334 . S
C1502 C1490 1.334 . S
C1502 C1499 1.334 . S
C1502 C1503 1.487 . S
C1503 C1502 1.487 . S
C1503 C1504 1.185 . S
C1504 C1503 1.185 . S
C1504 C1507 1.482 . S
C1505 C1493 1.334 . S
C1505 C1501 1.334 . S
C1505 C1506 1.487 . S
C1506 C1505 1.487 . S
C1506 C1507 1.185 . S
C1507 C1504 1.482 . S
C1507 C1506 1.185 . S
H1508 C1488 0.932 . S
H1509 C1490 0.928 . S
H1510 C1491 0.932 . S
H1511 C1493 0.928 . S
C1512 C1513 1.332 . S
C1512 C1514 1.345 . S
C1512 H1532 0.932 . S
C1513 C1512 1.332 . S
C1513 C1522 1.332 . S
C1514 C1512 1.345 . S
C1514 C1526 1.334 . S
C1514 H1533 0.928 . S
C1515 C1516 1.332 . S
C1515 C1517 1.345 . S
C1515 H1534 0.932 . S
C1516 C1515 1.332 . S
C1516 C1524 1.332 . S
C1517 C1515 1.345 . S
C1517 C1529 1.334 . S
C1517 H1535 0.928 . S
H1518 C1522 0.932 . S
H1519 C1523 0.928 . S
H1520 C1524 0.932 . S
H1521 C1525 0.928 . S
C1522 C1513 1.332 . S
C1522 H1518 0.932 . S
C1522 C1523 1.345 . S
C1523 H1519 0.928 . S
C1523 C1522 1.345 . S
C1523 C1526 1.334 . S
C1524 C1516 1.332 . S
C1524 H1520 0.932 . S
C1524 C1525 1.345 . S
C1525 H1521 0.928 . S
C1525 C1524 1.345 . S
C1525 C1529 1.334 . S
C1526 C1514 1.334 . S
C1526 C1523 1.334 . S
C1526 C1527 1.487 . S
C1527 C1526 1.487 . S
C1527 C1528 1.185 . S
C1528 C1527 1.185 . S
C1528 C1531 1.482 . S
C1529 C1517 1.334 . S
C1529 C1525 1.334 . S
C1529 C1530 1.487 . S
C1530 C1529 1.487 . S
C1530 C1531 1.185 . S
C1531 C1528 1.482 . S
C1531 C1530 1.185 . S
H1532 C1512 0.932 . S
H1533 C1514 0.928 . S
H1534 C1515 0.932 . S
H1535 C1517 0.928 . S
C1536 C1537 1.332 . S
C1536 C1538 1.345 . S
C1536 H1556 0.932 . S
C1537 C1536 1.332 . S
C1537 C1546 1.332 . S
C1538 C1536 1.345 . S
C1538 C1550 1.334 . S
C1538 H1557 0.928 . S
C1539 C1540 1.332 . S
C1539 C1541 1.345 . S
C1539 H1558 0.932 . S
C1540 C1539 1.332 . S
C1540 C1548 1.332 . S
C1541 C1539 1.345 . S
C1541 C1553 1.334 . S
C1541 H1559 0.928 . S
H1542 C1546 0.932 . S
H1543 C1547 0.928 . S
H1544 C1548 0.932 . S
H1545 C1549 0.928 . S
C1546 C1537 1.332 . S
C1546 H1542 0.932 . S
C1546 C1547 1.345 . S
C1547 H1543 0.928 . S
C1547 C1546 1.345 . S
C1547 C1550 1.334 . S
C1548 C1540 1.332 . S
C1548 H1544 0.932 . S
C1548 C1549 1.345 . S
C1549 H1545 0.928 . S
C1549 C1548 1.345 . S
C1549 C1553 1.334 . S
C1550 C1538 1.334 . S
C1550 C1547 1.334 . S
C1550 C1551 1.487 . S
C1551 C1550 1.487 . S
C1551 C1552 1.185 . S
C1552 C1551 1.185 . S
C1552 C1555 1.482 . S
C1553 C1541 1.334 . S
C1553 C1549 1.334 . S
C1553 C1554 1.487 . S
C1554 C1553 1.487 . S
C1554 C1555 1.185 . S
C1555 C1552 1.482 . S
C1555 C1554 1.185 . S
H1556 C1536 0.932 . S
H1557 C1538 0.928 . S
H1558 C1539 0.932 . S
H1559 C1541 0.928 . S
C1560 C1561 1.332 . S
C1560 C1562 1.345 . S
C1560 H1580 0.932 . S
C1561 C1560 1.332 . S
C1561 C1570 1.332 . S
C1562 C1560 1.345 . S
C1562 C1574 1.334 . S
C1562 H1581 0.928 . S
C1563 C1564 1.332 . S
C1563 C1565 1.345 . S
C1563 H1582 0.932 . S
C1564 C1563 1.332 . S
C1564 C1572 1.332 . S
C1565 C1563 1.345 . S
C1565 C1577 1.334 . S
C1565 H1583 0.928 . S
H1566 C1570 0.932 . S
H1567 C1571 0.928 . S
H1568 C1572 0.932 . S
H1569 C1573 0.928 . S
C1570 C1561 1.332 . S
C1570 H1566 0.932 . S
C1570 C1571 1.345 . S
C1571 H1567 0.928 . S
C1571 C1570 1.345 . S
C1571 C1574 1.334 . S
C1572 C1564 1.332 . S
C1572 H1568 0.932 . S
C1572 C1573 1.345 . S
C1573 H1569 0.928 . S
C1573 C1572 1.345 . S
C1573 C1577 1.334 . S
C1574 C1562 1.334 . S
C1574 C1571 1.334 . S
C1574 C1575 1.487 . S
C1575 C1574 1.487 . S
C1575 C1576 1.185 . S
C1576 C1575 1.185 . S
C1576 C1579 1.482 . S
C1577 C1565 1.334 . S
C1577 C1573 1.334 . S
C1577 C1578 1.487 . S
C1578 C1577 1.487 . S
C1578 C1579 1.185 . S
C1579 C1576 1.482 . S
C1579 C1578 1.185 . S
H1580 C1560 0.932 . S
H1581 C1562 0.928 . S
H1582 C1563 0.932 . S
H1583 C1565 0.928 . S
C1584 C1585 1.332 . S
C1584 C1586 1.345 . S
C1584 H1604 0.932 . S
C1585 C1584 1.332 . S
C1585 C1594 1.332 . S
C1586 C1584 1.345 . S
C1586 C1598 1.334 . S
C1586 H1605 0.928 . S
C1587 C1588 1.332 . S
C1587 C1589 1.345 . S
C1587 H1606 0.932 . S
C1588 C1587 1.332 . S
C1588 C1596 1.332 . S
C1589 C1587 1.345 . S
C1589 C1601 1.334 . S
C1589 H1607 0.928 . S
H1590 C1594 0.932 . S
H1591 C1595 0.928 . S
H1592 C1596 0.932 . S
H1593 C1597 0.928 . S
C1594 C1585 1.332 . S
C1594 H1590 0.932 . S
C1594 C1595 1.345 . S
C1595 H1591 0.928 . S
C1595 C1594 1.345 . S
C1595 C1598 1.334 . S
C1596 C1588 1.332 . S
C1596 H1592 0.932 . S
C1596 C1597 1.345 . S
C1597 H1593 0.928 . S
C1597 C1596 1.345 . S
C1597 C1601 1.334 . S
C1598 C1586 1.334 . S
C1598 C1595 1.334 . S
C1598 C1599 1.487 . S
C1599 C1598 1.487 . S
C1599 C1600 1.185 . S
C1600 C1599 1.185 . S
C1600 C1603 1.482 . S
C1601 C1589 1.334 . S
C1601 C1597 1.334 . S
C1601 C1602 1.487 . S
C1602 C1601 1.487 . S
C1602 C1603 1.185 . S
C1603 C1600 1.482 . S
C1603 C1602 1.185 . S
H1604 C1584 0.932 . S
H1605 C1586 0.928 . S
H1606 C1587 0.932 . S
H1607 C1589 0.928 . S
C1608 C1609 1.332 . S
C1608 C1610 1.345 . S
C1608 H1628 0.932 . S
C1609 C1608 1.332 . S
C1609 C1618 1.332 . S
C1610 C1608 1.345 . S
C1610 C1622 1.334 . S
C1610 H1629 0.928 . S
C1611 C1612 1.332 . S
C1611 C1613 1.345 . S
C1611 H1630 0.932 . S
C1612 C1611 1.332 . S
C1612 C1620 1.332 . S
C1613 C1611 1.345 . S
C1613 C1625 1.334 . S
C1613 H1631 0.928 . S
H1614 C1618 0.932 . S
H1615 C1619 0.928 . S
H1616 C1620 0.932 . S
H1617 C1621 0.928 . S
C1618 C1609 1.332 . S
C1618 H1614 0.932 . S
C1618 C1619 1.345 . S
C1619 H1615 0.928 . S
C1619 C1618 1.345 . S
C1619 C1622 1.334 . S
C1620 C1612 1.332 . S
C1620 H1616 0.932 . S
C1620 C1621 1.345 . S
C1621 H1617 0.928 . S
C1621 C1620 1.345 . S
C1621 C1625 1.334 . S
C1622 C1610 1.334 . S
C1622 C1619 1.334 . S
C1622 C1623 1.487 . S
C1623 C1622 1.487 . S
C1623 C1624 1.185 . S
C1624 C1623 1.185 . S
C1624 C1627 1.482 . S
C1625 C1613 1.334 . S
C1625 C1621 1.334 . S
C1625 C1626 1.487 . S
C1626 C1625 1.487 . S
C1626 C1627 1.185 . S
C1627 C1624 1.482 . S
C1627 C1626 1.185 . S
H1628 C1608 0.932 . S
H1629 C1610 0.928 . S
H1630 C1611 0.932 . S
H1631 C1613 0.928 . S
C1632 C1633 1.332 . S
C1632 C1634 1.345 . S
C1632 H1652 0.932 . S
C1633 C1632 1.332 . S
C1633 C1642 1.332 . S
C1634 C1632 1.345 . S
C1634 C1646 1.334 . S
C1634 H1653 0.928 . S
C1635 C1636 1.332 . S
C1635 C1637 1.345 . S
C1635 H1654 0.932 . S
C1636 C1635 1.332 . S
C1636 C1644 1.332 . S
C1637 C1635 1.345 . S
C1637 C1649 1.334 . S
C1637 H1655 0.928 . S
H1638 C1642 0.932 . S
H1639 C1643 0.928 . S
H1640 C1644 0.932 . S
H1641 C1645 0.928 . S
C1642 C1633 1.332 . S
C1642 H1638 0.932 . S
C1642 C1643 1.345 . S
C1643 H1639 0.928 . S
C1643 C1642 1.345 . S
C1643 C1646 1.334 . S
C1644 C1636 1.332 . S
C1644 H1640 0.932 . S
C1644 C1645 1.345 . S
C1645 H1641 0.928 . S
C1645 C1644 1.345 . S
C1645 C1649 1.334 . S
C1646 C1634 1.334 . S
C1646 C1643 1.334 . S
C1646 C1647 1.487 . S
C1647 C1646 1.487 . S
C1647 C1648 1.185 . S
C1648 C1647 1.185 . S
C1648 C1651 1.482 . S
C1649 C1637 1.334 . S
C1649 C1645 1.334 . S
C1649 C1650 1.487 . S
C1650 C1649 1.487 . S
C1650 C1651 1.185 . S
C1651 C1648 1.482 . S
C1651 C1650 1.185 . S
H1652 C1632 0.932 . S
H1653 C1634 0.928 . S
H1654 C1635 0.932 . S
H1655 C1637 0.928 . S
C1656 C1657 1.332 . S
C1656 C1658 1.345 . S
C1656 H1676 0.932 . S
C1657 C1656 1.332 . S
C1657 C1666 1.332 . S
C1658 C1656 1.345 . S
C1658 C1670 1.334 . S
C1658 H1677 0.928 . S
C1659 C1660 1.332 . S
C1659 C1661 1.345 . S
C1659 H1678 0.932 . S
C1660 C1659 1.332 . S
C1660 C1668 1.332 . S
C1661 C1659 1.345 . S
C1661 C1673 1.334 . S
C1661 H1679 0.928 . S
H1662 C1666 0.932 . S
H1663 C1667 0.928 . S
H1664 C1668 0.932 . S
H1665 C1669 0.928 . S
C1666 C1657 1.332 . S
C1666 H1662 0.932 . S
C1666 C1667 1.345 . S
C1667 H1663 0.928 . S
C1667 C1666 1.345 . S
C1667 C1670 1.334 . S
C1668 C1660 1.332 . S
C1668 H1664 0.932 . S
C1668 C1669 1.345 . S
C1669 H1665 0.928 . S
C1669 C1668 1.345 . S
C1669 C1673 1.334 . S
C1670 C1658 1.334 . S
C1670 C1667 1.334 . S
C1670 C1671 1.487 . S
C1671 C1670 1.487 . S
C1671 C1672 1.185 . S
C1672 C1671 1.185 . S
C1672 C1675 1.482 . S
C1673 C1661 1.334 . S
C1673 C1669 1.334 . S
C1673 C1674 1.487 . S
C1674 C1673 1.487 . S
C1674 C1675 1.185 . S
C1675 C1672 1.482 . S
C1675 C1674 1.185 . S
H1676 C1656 0.932 . S
H1677 C1658 0.928 . S
H1678 C1659 0.932 . S
H1679 C1661 0.928 . S
C1680 C1681 1.332 . S
C1680 C1682 1.345 . S
C1680 H1700 0.932 . S
C1681 C1680 1.332 . S
C1681 C1690 1.332 . S
C1682 C1680 1.345 . S
C1682 C1694 1.334 . S
C1682 H1701 0.928 . S
C1683 C1684 1.332 . S
C1683 C1685 1.345 . S
C1683 H1702 0.932 . S
C1684 C1683 1.332 . S
C1684 C1692 1.332 . S
C1685 C1683 1.345 . S
C1685 C1697 1.334 . S
C1685 H1703 0.928 . S
H1686 C1690 0.932 . S
H1687 C1691 0.928 . S
H1688 C1692 0.932 . S
H1689 C1693 0.928 . S
C1690 C1681 1.332 . S
C1690 H1686 0.932 . S
C1690 C1691 1.345 . S
C1691 H1687 0.928 . S
C1691 C1690 1.345 . S
C1691 C1694 1.334 . S
C1692 C1684 1.332 . S
C1692 H1688 0.932 . S
C1692 C1693 1.345 . S
C1693 H1689 0.928 . S
C1693 C1692 1.345 . S
C1693 C1697 1.334 . S
C1694 C1682 1.334 . S
C1694 C1691 1.334 . S
C1694 C1695 1.487 . S
C1695 C1694 1.487 . S
C1695 C1696 1.185 . S
C1696 C1695 1.185 . S
C1696 C1699 1.482 . S
C1697 C1685 1.334 . S
C1697 C1693 1.334 . S
C1697 C1698 1.487 . S
C1698 C1697 1.487 . S
C1698 C1699 1.185 . S
C1699 C1696 1.482 . S
C1699 C1698 1.185 . S
H1700 C1680 0.932 . S
H1701 C1682 0.928 . S
H1702 C1683 0.932 . S
H1703 C1685 0.928 . S
C1704 C1705 1.332 . S
C1704 C1706 1.345 . S
C1704 H1724 0.932 . S
C1705 C1704 1.332 . S
C1705 C1714 1.332 . S
C1706 C1704 1.345 . S
C1706 C1718 1.334 . S
C1706 H1725 0.928 . S
C1707 C1708 1.332 . S
C1707 C1709 1.345 . S
C1707 H1726 0.932 . S
C1708 C1707 1.332 . S
C1708 C1716 1.332 . S
C1709 C1707 1.345 . S
C1709 C1721 1.334 . S
C1709 H1727 0.928 . S
H1710 C1714 0.932 . S
H1711 C1715 0.928 . S
H1712 C1716 0.932 . S
H1713 C1717 0.928 . S
C1714 C1705 1.332 . S
C1714 H1710 0.932 . S
C1714 C1715 1.345 . S
C1715 H1711 0.928 . S
C1715 C1714 1.345 . S
C1715 C1718 1.334 . S
C1716 C1708 1.332 . S
C1716 H1712 0.932 . S
C1716 C1717 1.345 . S
C1717 H1713 0.928 . S
C1717 C1716 1.345 . S
C1717 C1721 1.334 . S
C1718 C1706 1.334 . S
C1718 C1715 1.334 . S
C1718 C1719 1.487 . S
C1719 C1718 1.487 . S
C1719 C1720 1.185 . S
C1720 C1719 1.185 . S
C1720 C1723 1.482 . S
C1721 C1709 1.334 . S
C1721 C1717 1.334 . S
C1721 C1722 1.487 . S
C1722 C1721 1.487 . S
C1722 C1723 1.185 . S
C1723 C1720 1.482 . S
C1723 C1722 1.185 . S
H1724 C1704 0.932 . S
H1725 C1706 0.928 . S
H1726 C1707 0.932 . S
H1727 C1709 0.928 . S
C1728 C1729 1.332 . S
C1728 C1730 1.345 . S
C1728 H1748 0.932 . S
C1729 C1728 1.332 . S
C1729 C1738 1.332 . S
C1730 C1728 1.345 . S
C1730 C1742 1.334 . S
C1730 H1749 0.928 . S
C1731 C1732 1.332 . S
C1731 C1733 1.345 . S
C1731 H1750 0.932 . S
C1732 C1731 1.332 . S
C1732 C1740 1.332 . S
C1733 C1731 1.345 . S
C1733 C1745 1.334 . S
C1733 H1751 0.928 . S
H1734 C1738 0.932 . S
H1735 C1739 0.928 . S
H1736 C1740 0.932 . S
H1737 C1741 0.928 . S
C1738 C1729 1.332 . S
C1738 H1734 0.932 . S
C1738 C1739 1.345 . S
C1739 H1735 0.928 . S
C1739 C1738 1.345 . S
C1739 C1742 1.334 . S
C1740 C1732 1.332 . S
C1740 H1736 0.932 . S
C1740 C1741 1.345 . S
C1741 H1737 0.928 . S
C1741 C1740 1.345 . S
C1741 C1745 1.334 . S
C1742 C1730 1.334 . S
C1742 C1739 1.334 . S
C1742 C1743 1.487 . S
C1743 C1742 1.487 . S
C1743 C1744 1.185 . S
C1744 C1743 1.185 . S
C1744 C1747 1.482 . S
C1745 C1733 1.334 . S
C1745 C1741 1.334 . S
C1745 C1746 1.487 . S
C1746 C1745 1.487 . S
C1746 C1747 1.185 . S
C1747 C1744 1.482 . S
C1747 C1746 1.185 . S
H1748 C1728 0.932 . S
H1749 C1730 0.928 . S
H1750 C1731 0.932 . S
H1751 C1733 0.928 . S
C1752 C1753 1.332 . S
C1752 C1754 1.345 . S
C1752 H1772 0.932 . S
C1753 C1752 1.332 . S
C1753 C1762 1.332 . S
C1754 C1752 1.345 . S
C1754 C1766 1.334 . S
C1754 H1773 0.928 . S
C1755 C1756 1.332 . S
C1755 C1757 1.345 . S
C1755 H1774 0.932 . S
C1756 C1755 1.332 . S
C1756 C1764 1.332 . S
C1757 C1755 1.345 . S
C1757 C1769 1.334 . S
C1757 H1775 0.928 . S
H1758 C1762 0.932 . S
H1759 C1763 0.928 . S
H1760 C1764 0.932 . S
H1761 C1765 0.928 . S
C1762 C1753 1.332 . S
C1762 H1758 0.932 . S
C1762 C1763 1.345 . S
C1763 H1759 0.928 . S
C1763 C1762 1.345 . S
C1763 C1766 1.334 . S
C1764 C1756 1.332 . S
C1764 H1760 0.932 . S
C1764 C1765 1.345 . S
C1765 H1761 0.928 . S
C1765 C1764 1.345 . S
C1765 C1769 1.334 . S
C1766 C1754 1.334 . S
C1766 C1763 1.334 . S
C1766 C1767 1.487 . S
C1767 C1766 1.487 . S
C1767 C1768 1.185 . S
C1768 C1767 1.185 . S
C1768 C1771 1.482 . S
C1769 C1757 1.334 . S
C1769 C1765 1.334 . S
C1769 C1770 1.487 . S
C1770 C1769 1.487 . S
C1770 C1771 1.185 . S
C1771 C1768 1.482 . S
C1771 C1770 1.185 . S
H1772 C1752 0.932 . S
H1773 C1754 0.928 . S
H1774 C1755 0.932 . S
H1775 C1757 0.928 . S
C1776 C1777 1.332 . S
C1776 C1778 1.345 . S
C1776 H1796 0.932 . S
C1777 C1776 1.332 . S
C1777 C1786 1.332 . S
C1778 C1776 1.345 . S
C1778 C1790 1.334 . S
C1778 H1797 0.928 . S
C1779 C1780 1.332 . S
C1779 C1781 1.345 . S
C1779 H1798 0.932 . S
C1780 C1779 1.332 . S
C1780 C1788 1.332 . S
C1781 C1779 1.345 . S
C1781 C1793 1.334 . S
C1781 H1799 0.928 . S
H1782 C1786 0.932 . S
H1783 C1787 0.928 . S
H1784 C1788 0.932 . S
H1785 C1789 0.928 . S
C1786 C1777 1.332 . S
C1786 H1782 0.932 . S
C1786 C1787 1.345 . S
C1787 H1783 0.928 . S
C1787 C1786 1.345 . S
C1787 C1790 1.334 . S
C1788 C1780 1.332 . S
C1788 H1784 0.932 . S
C1788 C1789 1.345 . S
C1789 H1785 0.928 . S
C1789 C1788 1.345 . S
C1789 C1793 1.334 . S
C1790 C1778 1.334 . S
C1790 C1787 1.334 . S
C1790 C1791 1.487 . S
C1791 C1790 1.487 . S
C1791 C1792 1.185 . S
C1792 C1791 1.185 . S
C1792 C1795 1.482 . S
C1793 C1781 1.334 . S
C1793 C1789 1.334 . S
C1793 C1794 1.487 . S
C1794 C1793 1.487 . S
C1794 C1795 1.185 . S
C1795 C1792 1.482 . S
C1795 C1794 1.185 . S
H1796 C1776 0.932 . S
H1797 C1778 0.928 . S
H1798 C1779 0.932 . S
H1799 C1781 0.928 . S
C1800 C1801 1.332 . S
C1800 C1802 1.345 . S
C1800 H1820 0.932 . S
C1801 C1800 1.332 . S
C1801 C1810 1.332 . S
C1802 C1800 1.345 . S
C1802 C1814 1.334 . S
C1802 H1821 0.928 . S
C1803 C1804 1.332 . S
C1803 C1805 1.345 . S
C1803 H1822 0.932 . S
C1804 C1803 1.332 . S
C1804 C1812 1.332 . S
C1805 C1803 1.345 . S
C1805 C1817 1.334 . S
C1805 H1823 0.928 . S
H1806 C1810 0.932 . S
H1807 C1811 0.928 . S
H1808 C1812 0.932 . S
H1809 C1813 0.928 . S
C1810 C1801 1.332 . S
C1810 H1806 0.932 . S
C1810 C1811 1.345 . S
C1811 H1807 0.928 . S
C1811 C1810 1.345 . S
C1811 C1814 1.334 . S
C1812 C1804 1.332 . S
C1812 H1808 0.932 . S
C1812 C1813 1.345 . S
C1813 H1809 0.928 . S
C1813 C1812 1.345 . S
C1813 C1817 1.334 . S
C1814 C1802 1.334 . S
C1814 C1811 1.334 . S
C1814 C1815 1.487 . S
C1815 C1814 1.487 . S
C1815 C1816 1.185 . S
C1816 C1815 1.185 . S
C1816 C1819 1.482 . S
C1817 C1805 1.334 . S
C1817 C1813 1.334 . S
C1817 C1818 1.487 . S
C1818 C1817 1.487 . S
C1818 C1819 1.185 . S
C1819 C1816 1.482 . S
C1819 C1818 1.185 . S
H1820 C1800 0.932 . S
H1821 C1802 0.928 . S
H1822 C1803 0.932 . S
H1823 C1805 0.928 . S
C1824 C1825 1.332 . S
C1824 C1826 1.345 . S
C1824 H1844 0.932 . S
C1825 C1824 1.332 . S
C1825 C1834 1.332 . S
C1826 C1824 1.345 . S
C1826 C1838 1.334 . S
C1826 H1845 0.928 . S
C1827 C1828 1.332 . S
C1827 C1829 1.345 . S
C1827 H1846 0.932 . S
C1828 C1827 1.332 . S
C1828 C1836 1.332 . S
C1829 C1827 1.345 . S
C1829 C1841 1.334 . S
C1829 H1847 0.928 . S
H1830 C1834 0.932 . S
H1831 C1835 0.928 . S
H1832 C1836 0.932 . S
H1833 C1837 0.928 . S
C1834 C1825 1.332 . S
C1834 H1830 0.932 . S
C1834 C1835 1.345 . S
C1835 H1831 0.928 . S
C1835 C1834 1.345 . S
C1835 C1838 1.334 . S
C1836 C1828 1.332 . S
C1836 H1832 0.932 . S
C1836 C1837 1.345 . S
C1837 H1833 0.928 . S
C1837 C1836 1.345 . S
C1837 C1841 1.334 . S
C1838 C1826 1.334 . S
C1838 C1835 1.334 . S
C1838 C1839 1.487 . S
C1839 C1838 1.487 . S
C1839 C1840 1.185 . S
C1840 C1839 1.185 . S
C1840 C1843 1.482 . S
C1841 C1829 1.334 . S
C1841 C1837 1.334 . S
C1841 C1842 1.487 . S
C1842 C1841 1.487 . S
C1842 C1843 1.185 . S
C1843 C1840 1.482 . S
C1843 C1842 1.185 . S
H1844 C1824 0.932 . S
H1845 C1826 0.928 . S
H1846 C1827 0.932 . S
H1847 C1829 0.928 . S
C1848 C1849 1.332 . S
C1848 C1850 1.345 . S
C1848 H1868 0.932 . S
C1849 C1848 1.332 . S
C1849 C1858 1.332 . S
C1850 C1848 1.345 . S
C1850 C1862 1.334 . S
C1850 H1869 0.928 . S
C1851 C1852 1.332 . S
C1851 C1853 1.345 . S
C1851 H1870 0.932 . S
C1852 C1851 1.332 . S
C1852 C1860 1.332 . S
C1853 C1851 1.345 . S
C1853 C1865 1.334 . S
C1853 H1871 0.928 . S
H1854 C1858 0.932 . S
H1855 C1859 0.928 . S
H1856 C1860 0.932 . S
H1857 C1861 0.928 . S
C1858 C1849 1.332 . S
C1858 H1854 0.932 . S
C1858 C1859 1.345 . S
C1859 H1855 0.928 . S
C1859 C1858 1.345 . S
C1859 C1862 1.334 . S
C1860 C1852 1.332 . S
C1860 H1856 0.932 . S
C1860 C1861 1.345 . S
C1861 H1857 0.928 . S
C1861 C1860 1.345 . S
C1861 C1865 1.334 . S
C1862 C1850 1.334 . S
C1862 C1859 1.334 . S
C1862 C1863 1.487 . S
C1863 C1862 1.487 . S
C1863 C1864 1.185 . S
C1864 C1863 1.185 . S
C1864 C1867 1.482 . S
C1865 C1853 1.334 . S
C1865 C1861 1.334 . S
C1865 C1866 1.487 . S
C1866 C1865 1.487 . S
C1866 C1867 1.185 . S
C1867 C1864 1.482 . S
C1867 C1866 1.185 . S
H1868 C1848 0.932 . S
H1869 C1850 0.928 . S
H1870 C1851 0.932 . S
H1871 C1853 0.928 . S
C1872 C1873 1.332 . S
C1872 C1874 1.345 . S
C1872 H1892 0.932 . S
C1873 C1872 1.332 . S
C1873 C1882 1.332 . S
C1874 C1872 1.345 . S
C1874 C1886 1.334 . S
C1874 H1893 0.928 . S
C1875 C1876 1.332 . S
C1875 C1877 1.345 . S
C1875 H1894 0.932 . S
C1876 C1875 1.332 . S
C1876 C1884 1.332 . S
C1877 C1875 1.345 . S
C1877 C1889 1.334 . S
C1877 H1895 0.928 . S
H1878 C1882 0.932 . S
H1879 C1883 0.928 . S
H1880 C1884 0.932 . S
H1881 C1885 0.928 . S
C1882 C1873 1.332 . S
C1882 H1878 0.932 . S
C1882 C1883 1.345 . S
C1883 H1879 0.928 . S
C1883 C1882 1.345 . S
C1883 C1886 1.334 . S
C1884 C1876 1.332 . S
C1884 H1880 0.932 . S
C1884 C1885 1.345 . S
C1885 H1881 0.928 . S
C1885 C1884 1.345 . S
C1885 C1889 1.334 . S
C1886 C1874 1.334 . S
C1886 C1883 1.334 . S
C1886 C1887 1.487 . S
C1887 C1886 1.487 . S
C1887 C1888 1.185 . S
C1888 C1887 1.185 . S
C1888 C1891 1.482 . S
C1889 C1877 1.334 . S
C1889 C1885 1.334 . S
C1889 C1890 1.487 . S
C1890 C1889 1.487 . S
C1890 C1891 1.185 . S
C1891 C1888 1.482 . S
C1891 C1890 1.185 . S
H1892 C1872 0.932 . S
H1893 C1874 0.928 . S
H1894 C1875 0.932 . S
H1895 C1877 0.928 . S
C1896 C1897 1.332 . S
C1896 C1898 1.345 . S
C1896 H1916 0.932 . S
C1897 C1896 1.332 . S
C1897 C1906 1.332 . S
C1898 C1896 1.345 . S
C1898 C1910 1.334 . S
C1898 H1917 0.928 . S
C1899 C1900 1.332 . S
C1899 C1901 1.345 . S
C1899 H1918 0.932 . S
C1900 C1899 1.332 . S
C1900 C1908 1.332 . S
C1901 C1899 1.345 . S
C1901 C1913 1.334 . S
C1901 H1919 0.928 . S
H1902 C1906 0.932 . S
H1903 C1907 0.928 . S
H1904 C1908 0.932 . S
H1905 C1909 0.928 . S
C1906 C1897 1.332 . S
C1906 H1902 0.932 . S
C1906 C1907 1.345 . S
C1907 H1903 0.928 . S
C1907 C1906 1.345 . S
C1907 C1910 1.334 . S
C1908 C1900 1.332 . S
C1908 H1904 0.932 . S
C1908 C1909 1.345 . S
C1909 H1905 0.928 . S
C1909 C1908 1.345 . S
C1909 C1913 1.334 . S
C1910 C1898 1.334 . S
C1910 C1907 1.334 . S
C1910 C1911 1.487 . S
C1911 C1910 1.487 . S
C1911 C1912 1.185 . S
C1912 C1911 1.185 . S
C1912 C1915 1.482 . S
C1913 C1901 1.334 . S
C1913 C1909 1.334 . S
C1913 C1914 1.487 . S
C1914 C1913 1.487 . S
C1914 C1915 1.185 . S
C1915 C1912 1.482 . S
C1915 C1914 1.185 . S
H1916 C1896 0.932 . S
H1917 C1898 0.928 . S
H1918 C1899 0.932 . S
H1919 C1901 0.928 . S
C1920 C1921 1.332 . S
C1920 C1922 1.345 . S
C1920 H1940 0.932 . S
C1921 C1920 1.332 . S
C1921 C1930 1.332 . S
C1922 C1920 1.345 . S
C1922 C1934 1.334 . S
C1922 H1941 0.928 . S
C1923 C1924 1.332 . S
C1923 C1925 1.345 . S
C1923 H1942 0.932 . S
C1924 C1923 1.332 . S
C1924 C1932 1.332 . S
C1925 C1923 1.345 . S
C1925 C1937 1.334 . S
C1925 H1943 0.928 . S
H1926 C1930 0.932 . S
H1927 C1931 0.928 . S
H1928 C1932 0.932 . S
H1929 C1933 0.928 1_554 S
C1930 C1921 1.332 . S
C1930 H1926 0.932 . S
C1930 C1931 1.345 . S
C1931 H1927 0.928 . S
C1931 C1930 1.345 . S
C1931 C1934 1.334 . S
C1932 C1924 1.332 . S
C1932 H1928 0.932 . S
C1932 C1933 1.345 . S
C1933 H1929 0.928 1_556 S
C1933 C1932 1.345 . S
C1933 C1937 1.334 . S
C1934 C1922 1.334 . S
C1934 C1931 1.334 . S
C1934 C1935 1.487 . S
C1935 C1934 1.487 . S
C1935 C1936 1.185 . S
C1936 C1935 1.185 . S
C1936 C1939 1.482 . S
C1937 C1925 1.334 . S
C1937 C1933 1.334 . S
C1937 C1938 1.487 1_556 S
C1938 C1937 1.487 1_554 S
C1938 C1939 1.185 . S
C1939 C1936 1.482 . S
C1939 C1938 1.185 . S
H1940 C1920 0.932 . S
H1941 C1922 0.928 . S
H1942 C1923 0.932 . S
H1943 C1925 0.928 . S
C1944 C1945 1.332 . S
C1944 C1946 1.345 . S
C1944 H1964 0.932 . S
C1945 C1944 1.332 . S
C1945 C1954 1.332 . S
C1946 C1944 1.345 . S
C1946 C1958 1.334 . S
C1946 H1965 0.928 . S
C1947 C1948 1.332 . S
C1947 C1949 1.345 . S
C1947 H1966 0.932 . S
C1948 C1947 1.332 . S
C1948 C1956 1.332 . S
C1949 C1947 1.345 . S
C1949 C1961 1.334 . S
C1949 H1967 0.928 . S
H1950 C1954 0.932 . S
H1951 C1955 0.928 . S
H1952 C1956 0.932 1_565 S
H1953 C1957 0.928 . S
C1954 C1945 1.332 . S
C1954 H1950 0.932 . S
C1954 C1955 1.345 . S
C1955 H1951 0.928 . S
C1955 C1954 1.345 . S
C1955 C1958 1.334 . S
C1956 C1948 1.332 . S
C1956 H1952 0.932 1_545 S
C1956 C1957 1.345 . S
C1957 H1953 0.928 . S
C1957 C1956 1.345 . S
C1957 C1961 1.334 . S
C1958 C1946 1.334 . S
C1958 C1955 1.334 . S
C1958 C1959 1.487 . S
C1959 C1958 1.487 . S
C1959 C1960 1.185 . S
C1960 C1959 1.185 . S
C1960 C1963 1.482 . S
C1961 C1949 1.334 . S
C1961 C1957 1.334 . S
C1961 C1962 1.487 . S
C1962 C1961 1.487 . S
C1962 C1963 1.185 . S
C1963 C1960 1.482 . S
C1963 C1962 1.185 . S
H1964 C1944 0.932 . S
H1965 C1946 0.928 . S
H1966 C1947 0.932 . S
H1967 C1949 0.928 . S
C1968 C1969 1.332 . S
C1968 C1970 1.345 . S
C1968 H1988 0.932 . S
C1969 C1968 1.332 . S
C1969 C1978 1.332 . S
C1970 C1968 1.345 . S
C1970 C1982 1.334 . S
C1970 H1989 0.928 . S
C1971 C1972 1.332 . S
C1971 C1973 1.345 . S
C1971 H1990 0.932 . S
C1972 C1971 1.332 . S
C1972 C1980 1.332 . S
C1973 C1971 1.345 . S
C1973 C1985 1.334 . S
C1973 H1991 0.928 . S
H1974 C1978 0.932 . S
H1975 C1979 0.926 1_556 S
H1976 C1980 0.932 1_545 S
H1977 C1981 0.928 . S
C1978 C1969 1.332 . S
C1978 H1974 0.932 . S
C1978 C1979 1.346 . S
C1979 H1975 0.926 1_554 S
C1979 C1978 1.346 . S
C1979 C1982 1.335 . S
C1980 C1972 1.332 . S
C1980 H1976 0.932 1_565 S
C1980 C1981 1.345 . S
C1981 H1977 0.928 . S
C1981 C1980 1.345 . S
C1981 C1985 1.334 . S
C1982 C1970 1.334 . S
C1982 C1979 1.335 . S
C1982 C1983 1.487 1_554 S
C1983 C1982 1.487 1_556 S
C1983 C1984 1.185 . S
C1984 C1983 1.185 . S
C1984 C1987 1.482 . S
C1985 C1973 1.334 . S
C1985 C1981 1.334 . S
C1985 C1986 1.487 . S
C1986 C1985 1.487 . S
C1986 C1987 1.185 . S
C1987 C1984 1.482 . S
C1987 C1986 1.185 . S
H1988 C1968 0.932 . S
H1989 C1970 0.928 . S
H1990 C1971 0.932 . S
H1991 C1973 0.928 . S
C1992 C1993 1.332 . S
C1992 C1994 1.345 . S
C1992 H2012 0.932 . S
C1993 C1992 1.332 . S
C1993 C2002 1.332 . S
C1994 C1992 1.345 . S
C1994 C2006 1.334 . S
C1994 H2013 0.928 . S
C1995 C1996 1.332 . S
C1995 C1997 1.345 . S
C1995 H2014 0.932 . S
C1996 C1995 1.332 . S
C1996 C2004 1.332 . S
C1997 C1995 1.345 . S
C1997 C2009 1.334 . S
C1997 H2015 0.928 . S
H1998 C2002 0.932 . S
H1999 C2003 0.928 . S
H2000 C2004 0.932 . S
H2001 C2005 0.928 . S
C2002 C1993 1.332 . S
C2002 H1998 0.932 . S
C2002 C2003 1.345 . S
C2003 H1999 0.928 . S
C2003 C2002 1.345 . S
C2003 C2006 1.334 . S
C2004 C1996 1.332 . S
C2004 H2000 0.932 . S
C2004 C2005 1.345 . S
C2005 H2001 0.928 . S
C2005 C2004 1.345 . S
C2005 C2009 1.334 . S
C2006 C1994 1.334 . S
C2006 C2003 1.334 . S
C2006 C2007 1.487 . S
C2007 C2006 1.487 . S
C2007 C2008 1.185 . S
C2008 C2007 1.185 . S
C2008 C2011 1.482 . S
C2009 C1997 1.334 . S
C2009 C2005 1.334 . S
C2009 C2010 1.487 . S
C2010 C2009 1.487 . S
C2010 C2011 1.185 . S
C2011 C2008 1.482 . S
C2011 C2010 1.185 . S
H2012 C1992 0.932 . S
H2013 C1994 0.928 . S
H2014 C1995 0.932 . S
H2015 C1997 0.928 . S
C2016 C2017 1.332 . S
C2016 C2018 1.345 . S
C2016 H2036 0.932 . S
C2017 C2016 1.332 . S
C2017 C2026 1.332 . S
C2018 C2016 1.345 . S
C2018 C2030 1.334 . S
C2018 H2037 0.928 . S
C2019 C2020 1.332 . S
C2019 C2021 1.345 . S
C2019 H2038 0.932 . S
C2020 C2019 1.332 . S
C2020 C2028 1.332 . S
C2021 C2019 1.345 . S
C2021 C2033 1.334 . S
C2021 H2039 0.928 . S
H2022 C2026 0.932 . S
H2023 C2027 0.928 . S
H2024 C2028 0.932 . S
H2025 C2029 0.928 . S
C2026 C2017 1.332 . S
C2026 H2022 0.932 . S
C2026 C2027 1.345 . S
C2027 H2023 0.928 . S
C2027 C2026 1.345 . S
C2027 C2030 1.334 . S
C2028 C2020 1.332 . S
C2028 H2024 0.932 . S
C2028 C2029 1.345 . S
C2029 H2025 0.928 . S
C2029 C2028 1.345 . S
C2029 C2033 1.334 . S
C2030 C2018 1.334 . S
C2030 C2027 1.334 . S
C2030 C2031 1.487 . S
C2031 C2030 1.487 . S
C2031 C2032 1.185 . S
C2032 C2031 1.185 . S
C2032 C2035 1.482 . S
C2033 C2021 1.334 . S
C2033 C2029 1.334 . S
C2033 C2034 1.487 1_455 S
C2034 C2033 1.487 1_655 S
C2034 C2035 1.185 . S
C2035 C2032 1.482 . S
C2035 C2034 1.185 . S
H2036 C2016 0.932 . S
H2037 C2018 0.928 . S
H2038 C2019 0.932 . S
H2039 C2021 0.928 . S
C2040 C2041 1.332 . S
C2040 C2042 1.345 . S
C2040 H2060 0.932 . S
C2041 C2040 1.332 . S
C2041 C2050 1.332 . S
C2042 C2040 1.345 . S
C2042 C2054 1.334 . S
C2042 H2061 0.928 . S
C2043 C2044 1.332 . S
C2043 C2045 1.345 . S
C2043 H2062 0.932 . S
C2044 C2043 1.332 . S
C2044 C2052 1.332 . S
C2045 C2043 1.345 . S
C2045 C2057 1.334 . S
C2045 H2063 0.928 . S
H2046 C2050 0.932 . S
H2047 C2051 0.928 . S
H2048 C2052 0.932 . S
H2049 C2053 0.928 . S
C2050 C2041 1.332 . S
C2050 H2046 0.932 . S
C2050 C2051 1.345 . S
C2051 H2047 0.928 . S
C2051 C2050 1.345 . S
C2051 C2054 1.334 . S
C2052 C2044 1.332 . S
C2052 H2048 0.932 . S
C2052 C2053 1.345 . S
C2053 H2049 0.928 . S
C2053 C2052 1.345 . S
C2053 C2057 1.334 . S
C2054 C2042 1.334 . S
C2054 C2051 1.334 . S
C2054 C2055 1.487 . S
C2055 C2054 1.487 . S
C2055 C2056 1.185 . S
C2056 C2055 1.185 . S
C2056 C2059 1.482 . S
C2057 C2045 1.334 . S
C2057 C2053 1.334 . S
C2057 C2058 1.487 1_655 S
C2058 C2057 1.487 1_455 S
C2058 C2059 1.185 . S
C2059 C2056 1.482 . S
C2059 C2058 1.185 . S
H2060 C2040 0.932 . S
H2061 C2042 0.928 . S
H2062 C2043 0.932 . S
H2063 C2045 0.928 . S
C2064 C2065 1.332 . S
C2064 C2066 1.345 . S
C2064 H2084 0.932 . S
C2065 C2064 1.332 . S
C2065 C2074 1.332 . S
C2066 C2064 1.345 . S
C2066 C2078 1.334 . S
C2066 H2085 0.928 . S
C2067 C2068 1.332 . S
C2067 C2069 1.345 . S
C2067 H2086 0.932 . S
C2068 C2067 1.332 . S
C2068 C2076 1.332 . S
C2069 C2067 1.345 . S
C2069 C2081 1.334 . S
C2069 H2087 0.928 . S
H2070 C2074 0.932 . S
H2071 C2075 0.928 . S
H2072 C2076 0.932 . S
H2073 C2077 0.928 . S
C2074 C2065 1.332 . S
C2074 H2070 0.932 . S
C2074 C2075 1.345 . S
C2075 H2071 0.928 . S
C2075 C2074 1.345 . S
C2075 C2078 1.334 . S
C2076 C2068 1.332 . S
C2076 H2072 0.932 . S
C2076 C2077 1.345 . S
C2077 H2073 0.928 . S
C2077 C2076 1.345 . S
C2077 C2081 1.334 . S
C2078 C2066 1.334 . S
C2078 C2075 1.334 . S
C2078 C2079 1.487 . S
C2079 C2078 1.487 . S
C2079 C2080 1.185 . S
C2080 C2079 1.185 . S
C2080 C2083 1.482 . S
C2081 C2069 1.334 . S
C2081 C2077 1.334 . S
C2081 C2082 1.487 . S
C2082 C2081 1.487 . S
C2082 C2083 1.185 . S
C2083 C2080 1.482 . S
C2083 C2082 1.185 . S
H2084 C2064 0.932 . S
H2085 C2066 0.928 . S
H2086 C2067 0.932 . S
H2087 C2069 0.928 . S
C2088 C2089 1.332 . S
C2088 C2090 1.345 . S
C2088 H2108 0.932 . S
C2089 C2088 1.332 . S
C2089 C2098 1.332 . S
C2090 C2088 1.345 . S
C2090 C2102 1.334 . S
C2090 H2109 0.928 . S
C2091 C2092 1.332 . S
C2091 C2093 1.345 . S
C2091 H2110 0.932 . S
C2092 C2091 1.332 . S
C2092 C2100 1.332 . S
C2093 C2091 1.345 . S
C2093 C2105 1.334 . S
C2093 H2111 0.928 . S
H2094 C2098 0.932 . S
H2095 C2099 0.928 . S
H2096 C2100 0.932 . S
H2097 C2101 0.928 . S
C2098 C2089 1.332 . S
C2098 H2094 0.932 . S
C2098 C2099 1.345 . S
C2099 H2095 0.928 . S
C2099 C2098 1.345 . S
C2099 C2102 1.334 . S
C2100 C2092 1.332 . S
C2100 H2096 0.932 . S
C2100 C2101 1.345 . S
C2101 H2097 0.928 . S
C2101 C2100 1.345 . S
C2101 C2105 1.334 . S
C2102 C2090 1.334 . S
C2102 C2099 1.334 . S
C2102 C2103 1.487 . S
C2103 C2102 1.487 . S
C2103 C2104 1.185 . S
C2104 C2103 1.185 . S
C2104 C2107 1.482 . S
C2105 C2093 1.334 . S
C2105 C2101 1.334 . S
C2105 C2106 1.487 . S
C2106 C2105 1.487 . S
C2106 C2107 1.185 . S
C2107 C2104 1.482 . S
C2107 C2106 1.185 . S
H2108 C2088 0.932 . S
H2109 C2090 0.928 . S
H2110 C2091 0.932 . S
H2111 C2093 0.928 . S
C2112 C2113 1.332 . S
C2112 C2114 1.345 . S
C2112 H2132 0.932 . S
C2113 C2112 1.332 . S
C2113 C2122 1.332 . S
C2114 C2112 1.345 . S
C2114 C2126 1.334 . S
C2114 H2133 0.928 . S
C2115 C2116 1.332 . S
C2115 C2117 1.345 . S
C2115 H2134 0.932 . S
C2116 C2115 1.332 . S
C2116 C2124 1.332 . S
C2117 C2115 1.345 . S
C2117 C2129 1.334 . S
C2117 H2135 0.928 . S
H2118 C2122 0.932 . S
H2119 C2123 0.928 . S
H2120 C2124 0.939 . S
H2121 C2125 0.928 . S
C2122 C2113 1.332 . S
C2122 H2118 0.932 . S
C2122 C2123 1.345 . S
C2123 H2119 0.928 . S
C2123 C2122 1.345 . S
C2123 C2126 1.334 . S
C2124 C2116 1.332 . S
C2124 H2120 0.939 . S
C2124 C2125 1.345 . S
C2125 H2121 0.928 . S
C2125 C2124 1.345 . S
C2125 C2129 1.334 . S
C2126 C2114 1.334 . S
C2126 C2123 1.334 . S
C2126 C2127 1.487 1_545 S
C2127 C2126 1.487 1_565 S
C2127 C2128 1.185 . S
C2128 C2127 1.185 . S
C2128 C2131 1.482 . S
C2129 C2117 1.334 . S
C2129 C2125 1.334 . S
C2129 C2130 1.487 . S
C2130 C2129 1.487 . S
C2130 C2131 1.185 . S
C2131 C2128 1.482 . S
C2131 C2130 1.185 . S
H2132 C2112 0.932 . S
H2133 C2114 0.928 . S
H2134 C2115 0.932 . S
H2135 C2117 0.928 . S
C2136 C2137 1.332 . S
C2136 C2138 1.345 . S
C2136 H2156 0.932 . S
C2137 C2136 1.332 . S
C2137 C2146 1.332 . S
C2138 C2136 1.345 . S
C2138 C2150 1.334 . S
C2138 H2157 0.928 . S
C2139 C2140 1.332 . S
C2139 C2141 1.345 . S
C2139 H2158 0.932 . S
C2140 C2139 1.332 . S
C2140 C2148 1.332 . S
C2141 C2139 1.345 . S
C2141 C2153 1.334 . S
C2141 H2159 0.928 . S
H2142 C2146 0.932 . S
H2143 C2147 0.928 . S
H2144 C2148 0.932 . S
H2145 C2149 0.928 . S
C2146 C2137 1.332 . S
C2146 H2142 0.932 . S
C2146 C2147 1.345 . S
C2147 H2143 0.928 . S
C2147 C2146 1.345 . S
C2147 C2150 1.334 . S
C2148 C2140 1.332 . S
C2148 H2144 0.932 . S
C2148 C2149 1.345 . S
C2149 H2145 0.928 . S
C2149 C2148 1.345 . S
C2149 C2153 1.334 . S
C2150 C2138 1.334 . S
C2150 C2147 1.334 . S
C2150 C2151 1.487 . S
C2151 C2150 1.487 . S
C2151 C2152 1.185 . S
C2152 C2151 1.185 . S
C2152 C2155 1.482 . S
C2153 C2141 1.334 . S
C2153 C2149 1.334 . S
C2153 C2154 1.487 1_565 S
C2154 C2153 1.487 1_545 S
C2154 C2155 1.185 . S
C2155 C2152 1.482 . S
C2155 C2154 1.185 . S
H2156 C2136 0.932 . S
H2157 C2138 0.928 . S
H2158 C2139 0.932 . S
H2159 C2141 0.928 . S
C2160 C2161 1.332 . S
C2160 C2162 1.345 . S
C2160 H2180 0.932 . S
C2161 C2160 1.332 . S
C2161 C2170 1.332 . S
C2162 C2160 1.345 . S
C2162 C2174 1.334 . S
C2162 H2181 0.928 . S
C2163 C2164 1.332 . S
C2163 C2165 1.345 . S
C2163 H2182 0.932 . S
C2164 C2163 1.332 . S
C2164 C2172 1.332 . S
C2165 C2163 1.345 . S
C2165 C2177 1.334 . S
C2165 H2183 0.928 . S
H2166 C2170 0.932 . S
H2167 C2171 0.928 . S
H2168 C2172 0.932 . S
H2169 C2173 0.928 . S
C2170 C2161 1.332 . S
C2170 H2166 0.932 . S
C2170 C2171 1.345 . S
C2171 H2167 0.928 . S
C2171 C2170 1.345 . S
C2171 C2174 1.334 . S
C2172 C2164 1.332 . S
C2172 H2168 0.932 . S
C2172 C2173 1.345 . S
C2173 H2169 0.928 . S
C2173 C2172 1.345 . S
C2173 C2177 1.334 . S
C2174 C2162 1.334 . S
C2174 C2171 1.334 . S
C2174 C2175 1.487 . S
C2175 C2174 1.487 . S
C2175 C2176 1.185 . S
C2176 C2175 1.185 . S
C2176 C2179 1.482 . S
C2177 C2165 1.334 . S
C2177 C2173 1.334 . S
C2177 C2178 1.487 . S
C2178 C2177 1.487 . S
C2178 C2179 1.185 . S
C2179 C2176 1.482 . S
C2179 C2178 1.185 . S
H2180 C2160 0.932 . S
H2181 C2162 0.928 . S
H2182 C2163 0.932 . S
H2183 C2165 0.928 . S
C2184 C2185 1.332 . S
C2184 C2186 1.345 . S
C2184 H2204 0.932 . S
C2185 C2184 1.332 . S
C2185 C2194 1.332 . S
C2186 C2184 1.345 . S
C2186 C2198 1.334 . S
C2186 H2205 0.928 . S
C2187 C2188 1.332 . S
C2187 C2189 1.345 . S
C2187 H2206 0.932 . S
C2188 C2187 1.332 . S
C2188 C2196 1.332 . S
C2189 C2187 1.345 . S
C2189 C2201 1.334 . S
C2189 H2207 0.928 . S
H2190 C2194 0.932 . S
H2191 C2195 0.928 . S
H2192 C2196 0.932 . S
H2193 C2197 0.928 . S
C2194 C2185 1.332 . S
C2194 H2190 0.932 . S
C2194 C2195 1.345 . S
C2195 H2191 0.928 . S
C2195 C2194 1.345 . S
C2195 C2198 1.334 . S
C2196 C2188 1.332 . S
C2196 H2192 0.932 . S
C2196 C2197 1.345 . S
C2197 H2193 0.928 . S
C2197 C2196 1.345 . S
C2197 C2201 1.334 . S
C2198 C2186 1.334 . S
C2198 C2195 1.334 . S
C2198 C2199 1.487 . S
C2199 C2198 1.487 . S
C2199 C2200 1.185 . S
C2200 C2199 1.185 . S
C2200 C2203 1.482 . S
C2201 C2189 1.334 . S
C2201 C2197 1.334 . S
C2201 C2202 1.487 . S
C2202 C2201 1.487 . S
C2202 C2203 1.185 . S
C2203 C2200 1.482 . S
C2203 C2202 1.185 . S
H2204 C2184 0.932 . S
H2205 C2186 0.928 . S
H2206 C2187 0.932 . S
H2207 C2189 0.928 . S
C2208 C2209 1.332 . S
C2208 C2210 1.345 . S
C2208 H2228 0.932 . S
C2209 C2208 1.332 . S
C2209 C2218 1.332 . S
C2210 C2208 1.345 . S
C2210 C2222 1.334 . S
C2210 H2229 0.928 . S
C2211 C2212 1.332 . S
C2211 C2213 1.345 . S
C2211 H2230 0.932 . S
C2212 C2211 1.332 . S
C2212 C2220 1.332 . S
C2213 C2211 1.345 . S
C2213 C2225 1.334 . S
C2213 H2231 0.928 1_554 S
H2214 C2218 0.932 . S
H2215 C2219 0.928 . S
H2216 C2220 0.932 . S
H2217 C2221 0.928 . S
C2218 C2209 1.332 . S
C2218 H2214 0.932 . S
C2218 C2219 1.345 . S
C2219 H2215 0.928 . S
C2219 C2218 1.345 . S
C2219 C2222 1.334 . S
C2220 C2212 1.332 . S
C2220 H2216 0.932 . S
C2220 C2221 1.345 . S
C2221 H2217 0.928 . S
C2221 C2220 1.345 . S
C2221 C2225 1.334 . S
C2222 C2210 1.334 . S
C2222 C2219 1.334 . S
C2222 C2223 1.487 . S
C2223 C2222 1.487 . S
C2223 C2224 1.185 . S
C2224 C2223 1.185 . S
C2224 C2227 1.482 . S
C2225 C2213 1.334 . S
C2225 C2221 1.334 . S
C2225 C2226 1.487 1_554 S
C2226 C2225 1.487 1_556 S
C2226 C2227 1.185 . S
C2227 C2224 1.482 . S
C2227 C2226 1.185 . S
H2228 C2208 0.932 . S
H2229 C2210 0.928 . S
H2230 C2211 0.932 . S
H2231 C2213 0.928 1_556 S
C2232 C2233 1.332 . S
C2232 C2234 1.345 . S
C2232 H2252 0.932 1_565 S
C2233 C2232 1.332 . S
C2233 C2242 1.332 . S
C2234 C2232 1.345 . S
C2234 C2246 1.334 . S
C2234 H2253 0.928 . S
C2235 C2236 1.332 . S
C2235 C2237 1.345 . S
C2235 H2254 0.932 . S
C2236 C2235 1.332 . S
C2236 C2244 1.332 . S
C2237 C2235 1.345 . S
C2237 C2249 1.334 . S
C2237 H2255 0.928 . S
H2238 C2242 0.932 . S
H2239 C2243 0.928 . S
H2240 C2244 0.932 . S
H2241 C2245 0.928 . S
C2242 C2233 1.332 . S
C2242 H2238 0.932 . S
C2242 C2243 1.345 . S
C2243 H2239 0.928 . S
C2243 C2242 1.345 . S
C2243 C2246 1.334 . S
C2244 C2236 1.332 . S
C2244 H2240 0.932 . S
C2244 C2245 1.345 . S
C2245 H2241 0.928 . S
C2245 C2244 1.345 . S
C2245 C2249 1.334 . S
C2246 C2234 1.334 . S
C2246 C2243 1.334 . S
C2246 C2247 1.487 . S
C2247 C2246 1.487 . S
C2247 C2248 1.185 . S
C2248 C2247 1.185 . S
C2248 C2251 1.482 . S
C2249 C2237 1.334 . S
C2249 C2245 1.334 . S
C2249 C2250 1.487 . S
C2250 C2249 1.487 . S
C2250 C2251 1.185 . S
C2251 C2248 1.482 . S
C2251 C2250 1.185 . S
H2252 C2232 0.932 1_545 S
H2253 C2234 0.928 . S
H2254 C2235 0.932 . S
H2255 C2237 0.928 . S
C2256 C2257 1.332 . S
C2256 C2258 1.345 . S
C2256 H2276 0.932 1_545 S
C2257 C2256 1.332 . S
C2257 C2266 1.332 . S
C2258 C2256 1.345 . S
C2258 C2270 1.334 . S
C2258 H2277 0.928 . S
C2259 C2260 1.332 . S
C2259 C2261 1.345 . S
C2259 H2278 0.932 . S
C2260 C2259 1.332 . S
C2260 C2268 1.332 . S
C2261 C2259 1.345 . S
C2261 C2273 1.334 . S
C2261 H2279 0.928 1_556 S
H2262 C2266 0.932 . S
H2263 C2267 0.928 . S
H2264 C2268 0.932 . S
H2265 C2269 0.928 . S
C2266 C2257 1.332 . S
C2266 H2262 0.932 . S
C2266 C2267 1.345 . S
C2267 H2263 0.928 . S
C2267 C2266 1.345 . S
C2267 C2270 1.334 . S
C2268 C2260 1.332 . S
C2268 H2264 0.932 . S
C2268 C2269 1.345 . S
C2269 H2265 0.928 . S
C2269 C2268 1.345 . S
C2269 C2273 1.334 . S
C2270 C2258 1.334 . S
C2270 C2267 1.334 . S
C2270 C2271 1.487 . S
C2271 C2270 1.487 . S
C2271 C2272 1.185 . S
C2272 C2271 1.185 . S
C2272 C2275 1.482 . S
C2273 C2261 1.334 . S
C2273 C2269 1.334 . S
C2273 C2274 1.487 1_556 S
C2274 C2273 1.487 1_554 S
C2274 C2275 1.185 . S
C2275 C2272 1.482 . S
C2275 C2274 1.185 . S
H2276 C2256 0.932 1_565 S
H2277 C2258 0.928 . S
H2278 C2259 0.932 . S
H2279 C2261 0.928 1_554 S
C2280 C2281 1.332 . S
C2280 C2282 1.345 . S
C2280 H2300 0.932 . S
C2281 C2280 1.332 . S
C2281 C2290 1.332 . S
C2282 C2280 1.345 . S
C2282 C2294 1.334 . S
C2282 H2301 0.928 . S
C2283 C2284 1.332 . S
C2283 C2285 1.345 . S
C2283 H2302 0.932 . S
C2284 C2283 1.332 . S
C2284 C2292 1.332 . S
C2285 C2283 1.345 . S
C2285 C2297 1.334 . S
C2285 H2303 0.928 . S
H2286 C2290 0.932 . S
H2287 C2291 0.928 . S
H2288 C2292 0.932 . S
H2289 C2293 0.928 . S
C2290 C2281 1.332 . S
C2290 H2286 0.932 . S
C2290 C2291 1.345 . S
C2291 H2287 0.928 . S
C2291 C2290 1.345 . S
C2291 C2294 1.334 . S
C2292 C2284 1.332 . S
C2292 H2288 0.932 . S
C2292 C2293 1.345 . S
C2293 H2289 0.928 . S
C2293 C2292 1.345 . S
C2293 C2297 1.334 . S
C2294 C2282 1.334 . S
C2294 C2291 1.334 . S
C2294 C2295 1.487 . S
C2295 C2294 1.487 . S
C2295 C2296 1.185 . S
C2296 C2295 1.185 . S
C2296 C2299 1.482 . S
C2297 C2285 1.334 . S
C2297 C2293 1.334 . S
C2297 C2298 1.487 . S
C2298 C2297 1.487 . S
C2298 C2299 1.185 . S
C2299 C2296 1.482 . S
C2299 C2298 1.185 . S
H2300 C2280 0.932 . S
H2301 C2282 0.928 . S
H2302 C2283 0.932 . S
H2303 C2285 0.928 . S
C2304 C2305 1.332 . S
C2304 C2306 1.345 . S
C2304 H2324 0.932 . S
C2305 C2304 1.332 . S
C2305 C2314 1.332 . S
C2306 C2304 1.345 . S
C2306 C2318 1.334 . S
C2306 H2325 0.928 . S
C2307 C2308 1.332 . S
C2307 C2309 1.345 . S
C2307 H2326 0.932 . S
C2308 C2307 1.332 . S
C2308 C2316 1.332 . S
C2309 C2307 1.345 . S
C2309 C2321 1.334 . S
C2309 H2327 0.928 . S
H2310 C2314 0.932 . S
H2311 C2315 0.928 . S
H2312 C2316 0.943 . S
H2313 C2317 0.928 . S
C2314 C2305 1.332 . S
C2314 H2310 0.932 . S
C2314 C2315 1.345 . S
C2315 H2311 0.928 . S
C2315 C2314 1.345 . S
C2315 C2318 1.334 . S
C2316 C2308 1.332 . S
C2316 H2312 0.943 . S
C2316 C2317 1.345 . S
C2317 H2313 0.928 . S
C2317 C2316 1.345 . S
C2317 C2321 1.334 . S
C2318 C2306 1.334 . S
C2318 C2315 1.334 . S
C2318 C2319 1.487 1_655 S
C2319 C2318 1.487 1_455 S
C2319 C2320 1.185 . S
C2320 C2319 1.185 . S
C2320 C2323 1.482 . S
C2321 C2309 1.334 . S
C2321 C2317 1.334 . S
C2321 C2322 1.487 . S
C2322 C2321 1.487 . S
C2322 C2323 1.185 . S
C2323 C2320 1.482 . S
C2323 C2322 1.185 . S
H2324 C2304 0.932 . S
H2325 C2306 0.928 . S
H2326 C2307 0.932 . S
H2327 C2309 0.928 . S
C2328 C2329 1.332 . S
C2328 C2330 1.345 . S
C2328 H2348 0.932 . S
C2329 C2328 1.332 . S
C2329 C2338 1.332 . S
C2330 C2328 1.345 . S
C2330 C2342 1.334 . S
C2330 H2349 0.951 . S
C2331 C2332 1.332 . S
C2331 C2333 1.345 . S
C2331 H2350 0.932 . S
C2332 C2331 1.332 . S
C2332 C2340 1.332 . S
C2333 C2331 1.345 . S
C2333 C2345 1.334 . S
C2333 H2351 0.928 . S
H2334 C2338 0.932 . S
H2335 C2339 0.928 . S
H2336 C2340 0.932 . S
H2337 C2341 0.928 . S
C2338 C2329 1.332 . S
C2338 H2334 0.932 . S
C2338 C2339 1.345 . S
C2339 H2335 0.928 . S
C2339 C2338 1.345 . S
C2339 C2342 1.334 . S
C2340 C2332 1.332 . S
C2340 H2336 0.932 . S
C2340 C2341 1.345 . S
C2341 H2337 0.928 . S
C2341 C2340 1.345 . S
C2341 C2345 1.334 . S
C2342 C2330 1.334 . S
C2342 C2339 1.334 . S
C2342 C2343 1.487 1_455 S
C2343 C2342 1.487 1_655 S
C2343 C2344 1.185 . S
C2344 C2343 1.185 . S
C2344 C2347 1.482 . S
C2345 C2333 1.334 . S
C2345 C2341 1.334 . S
C2345 C2346 1.487 . S
C2346 C2345 1.487 . S
C2346 C2347 1.185 . S
C2347 C2344 1.482 . S
C2347 C2346 1.185 . S
H2348 C2328 0.932 . S
H2349 C2330 0.951 . S
H2350 C2331 0.932 . S
H2351 C2333 0.928 . S
C2352 C2353 1.332 . S
C2352 C2354 1.345 . S
C2352 H2372 0.932 . S
C2353 C2352 1.332 . S
C2353 C2362 1.332 . S
C2354 C2352 1.345 . S
C2354 C2366 1.334 . S
C2354 H2373 0.928 . S
C2355 C2356 1.332 . S
C2355 C2357 1.345 . S
C2355 H2374 0.932 1_556 S
C2356 C2355 1.332 . S
C2356 C2364 1.332 . S
C2357 C2355 1.345 . S
C2357 C2369 1.334 . S
C2357 H2375 0.928 . S
H2358 C2362 0.932 . S
H2359 C2363 0.928 . S
H2360 C2364 0.932 . S
H2361 C2365 0.928 . S
C2362 C2353 1.332 . S
C2362 H2358 0.932 . S
C2362 C2363 1.345 . S
C2363 H2359 0.928 . S
C2363 C2362 1.345 . S
C2363 C2366 1.334 . S
C2364 C2356 1.332 . S
C2364 H2360 0.932 . S
C2364 C2365 1.345 . S
C2365 H2361 0.928 . S
C2365 C2364 1.345 . S
C2365 C2369 1.334 . S
C2366 C2354 1.334 . S
C2366 C2363 1.334 . S
C2366 C2367 1.487 . S
C2367 C2366 1.487 . S
C2367 C2368 1.185 . S
C2368 C2367 1.185 . S
C2368 C2371 1.482 . S
C2369 C2357 1.334 . S
C2369 C2365 1.334 . S
C2369 C2370 1.487 . S
C2370 C2369 1.487 . S
C2370 C2371 1.185 . S
C2371 C2368 1.482 . S
C2371 C2370 1.185 . S
H2372 C2352 0.932 . S
H2373 C2354 0.928 . S
H2374 C2355 0.932 1_554 S
H2375 C2357 0.928 . S
C2376 C2377 1.332 . S
C2376 C2378 1.345 . S
C2376 H2396 0.932 . S
C2377 C2376 1.332 . S
C2377 C2386 1.332 . S
C2378 C2376 1.345 . S
C2378 C2390 1.334 . S
C2378 H2397 0.928 . S
C2379 C2380 1.332 . S
C2379 C2381 1.345 . S
C2379 H2398 0.932 . S
C2380 C2379 1.332 . S
C2380 C2388 1.332 . S
C2381 C2379 1.345 . S
C2381 C2393 1.334 . S
C2381 H2399 0.928 . S
H2382 C2386 0.932 . S
H2383 C2387 0.928 . S
H2384 C2388 0.932 . S
H2385 C2389 0.928 . S
C2386 C2377 1.332 . S
C2386 H2382 0.932 . S
C2386 C2387 1.345 . S
C2387 H2383 0.928 . S
C2387 C2386 1.345 . S
C2387 C2390 1.334 . S
C2388 C2380 1.332 . S
C2388 H2384 0.932 . S
C2388 C2389 1.345 . S
C2389 H2385 0.928 . S
C2389 C2388 1.345 . S
C2389 C2393 1.334 . S
C2390 C2378 1.334 . S
C2390 C2387 1.334 . S
C2390 C2391 1.487 . S
C2391 C2390 1.487 . S
C2391 C2392 1.185 . S
C2392 C2391 1.185 . S
C2392 C2395 1.482 . S
C2393 C2381 1.334 . S
C2393 C2389 1.334 . S
C2393 C2394 1.487 . S
C2394 C2393 1.487 . S
C2394 C2395 1.185 . S
C2395 C2392 1.482 . S
C2395 C2394 1.185 . S
H2396 C2376 0.932 . S
H2397 C2378 0.928 . S
H2398 C2379 0.932 . S
H2399 C2381 0.928 . S
C2400 C2401 1.332 . S
C2400 C2402 1.345 . S
C2400 H2420 0.932 . S
C2401 C2400 1.332 . S
C2401 C2410 1.332 . S
C2402 C2400 1.345 . S
C2402 C2414 1.334 . S
C2402 H2421 0.928 . S
C2403 C2404 1.332 . S
C2403 C2405 1.345 . S
C2403 H2422 0.932 . S
C2404 C2403 1.332 . S
C2404 C2412 1.332 . S
C2405 C2403 1.345 . S
C2405 C2417 1.334 . S
C2405 H2423 0.928 . S
H2406 C2410 0.932 1_655 S
H2407 C2411 0.928 . S
H2408 C2412 0.932 . S
H2409 C2413 0.928 . S
C2410 C2401 1.332 . S
C2410 H2406 0.932 1_455 S
C2410 C2411 1.345 . S
C2411 H2407 0.928 . S
C2411 C2410 1.345 . S
C2411 C2414 1.334 . S
C2412 C2404 1.332 . S
C2412 H2408 0.932 . S
C2412 C2413 1.345 . S
C2413 H2409 0.928 . S
C2413 C2412 1.345 . S
C2413 C2417 1.334 . S
C2414 C2402 1.334 . S
C2414 C2411 1.334 . S
C2414 C2415 1.487 . S
C2415 C2414 1.487 . S
C2415 C2416 1.185 . S
C2416 C2415 1.185 . S
C2416 C2419 1.482 . S
C2417 C2405 1.334 . S
C2417 C2413 1.334 . S
C2417 C2418 1.487 1_565 S
C2418 C2417 1.487 1_545 S
C2418 C2419 1.185 . S
C2419 C2416 1.482 . S
C2419 C2418 1.185 . S
H2420 C2400 0.932 . S
H2421 C2402 0.928 . S
H2422 C2403 0.932 . S
H2423 C2405 0.928 . S
C2424 C2425 1.332 . S
C2424 C2426 1.345 . S
C2424 H2444 0.932 . S
C2425 C2424 1.332 . S
C2425 C2434 1.332 . S
C2426 C2424 1.345 . S
C2426 C2438 1.334 . S
C2426 H2445 0.928 . S
C2427 C2428 1.332 . S
C2427 C2429 1.345 . S
C2427 H2446 0.932 . S
C2428 C2427 1.332 . S
C2428 C2436 1.332 . S
C2429 C2427 1.345 . S
C2429 C2441 1.334 . S
C2429 H2447 0.929 . S
H2430 C2434 0.932 . S
H2431 C2435 0.928 . S
H2432 C2436 0.932 . S
H2433 C2437 0.928 . S
C2434 C2425 1.332 . S
C2434 H2430 0.932 . S
C2434 C2435 1.345 . S
C2435 H2431 0.928 . S
C2435 C2434 1.345 . S
C2435 C2438 1.334 . S
C2436 C2428 1.332 . S
C2436 H2432 0.932 . S
C2436 C2437 1.345 . S
C2437 H2433 0.928 . S
C2437 C2436 1.345 . S
C2437 C2441 1.334 . S
C2438 C2426 1.334 . S
C2438 C2435 1.334 . S
C2438 C2439 1.487 . S
C2439 C2438 1.487 . S
C2439 C2440 1.185 . S
C2440 C2439 1.185 . S
C2440 C2443 1.482 . S
C2441 C2429 1.334 . S
C2441 C2437 1.334 . S
C2441 C2442 1.487 1_545 S
C2442 C2441 1.487 1_565 S
C2442 C2443 1.185 . S
C2443 C2440 1.482 . S
C2443 C2442 1.185 . S
H2444 C2424 0.932 . S
H2445 C2426 0.928 . S
H2446 C2427 0.932 . S
H2447 C2429 0.929 . S
C2448 C2449 1.332 . S
C2448 C2450 1.345 . S
C2448 H2468 0.932 1_655 S
C2449 C2448 1.332 . S
C2449 C2458 1.332 . S
C2450 C2448 1.345 . S
C2450 C2462 1.334 . S
C2450 H2469 0.928 . S
C2451 C2452 1.332 . S
C2451 C2453 1.345 . S
C2451 H2470 0.932 . S
C2452 C2451 1.332 . S
C2452 C2460 1.332 . S
C2453 C2451 1.345 . S
C2453 C2465 1.334 . S
C2453 H2471 0.928 . S
H2454 C2458 0.932 . S
H2455 C2459 0.928 . S
H2456 C2460 0.932 . S
H2457 C2461 0.928 . S
C2458 C2449 1.332 . S
C2458 H2454 0.932 . S
C2458 C2459 1.345 . S
C2459 H2455 0.928 . S
C2459 C2458 1.345 . S
C2459 C2462 1.334 . S
C2460 C2452 1.332 . S
C2460 H2456 0.932 . S
C2460 C2461 1.345 . S
C2461 H2457 0.928 . S
C2461 C2460 1.345 . S
C2461 C2465 1.334 . S
C2462 C2450 1.334 . S
C2462 C2459 1.334 . S
C2462 C2463 1.487 . S
C2463 C2462 1.487 . S
C2463 C2464 1.185 . S
C2464 C2463 1.185 . S
C2464 C2467 1.482 . S
C2465 C2453 1.334 . S
C2465 C2461 1.334 . S
C2465 C2466 1.487 . S
C2466 C2465 1.487 . S
C2466 C2467 1.185 . S
C2467 C2464 1.482 . S
C2467 C2466 1.185 . S
H2468 C2448 0.932 1_455 S
H2469 C2450 0.928 . S
H2470 C2451 0.932 . S
H2471 C2453 0.928 . S
C2472 C2473 1.332 . S
C2472 C2474 1.345 . S
C2472 H2492 0.932 . S
C2473 C2472 1.332 . S
C2473 C2482 1.332 . S
C2474 C2472 1.345 . S
C2474 C2486 1.334 . S
C2474 H2493 0.928 . S
C2475 C2476 1.332 . S
C2475 C2477 1.345 . S
C2475 H2494 0.932 . S
C2476 C2475 1.332 . S
C2476 C2484 1.332 . S
C2477 C2475 1.345 . S
C2477 C2489 1.334 . S
C2477 H2495 0.928 . S
H2478 C2482 0.932 . S
H2479 C2483 0.928 . S
H2480 C2484 0.932 . S
H2481 C2485 0.928 . S
C2482 C2473 1.332 . S
C2482 H2478 0.932 . S
C2482 C2483 1.345 . S
C2483 H2479 0.928 . S
C2483 C2482 1.345 . S
C2483 C2486 1.334 . S
C2484 C2476 1.332 . S
C2484 H2480 0.932 . S
C2484 C2485 1.345 . S
C2485 H2481 0.928 . S
C2485 C2484 1.345 . S
C2485 C2489 1.334 . S
C2486 C2474 1.334 . S
C2486 C2483 1.334 . S
C2486 C2487 1.487 . S
C2487 C2486 1.487 . S
C2487 C2488 1.185 . S
C2488 C2487 1.185 . S
C2488 C2491 1.482 . S
C2489 C2477 1.334 . S
C2489 C2485 1.334 . S
C2489 C2490 1.487 . S
C2490 C2489 1.487 . S
C2490 C2491 1.185 . S
C2491 C2488 1.482 . S
C2491 C2490 1.185 . S
H2492 C2472 0.932 . S
H2493 C2474 0.928 . S
H2494 C2475 0.932 . S
H2495 C2477 0.928 . S
C2496 C2497 1.332 . S
C2496 C2498 1.345 . S
C2496 H2516 0.932 . S
C2497 C2496 1.332 . S
C2497 C2506 1.332 . S
C2498 C2496 1.345 . S
C2498 C2510 1.334 . S
C2498 H2517 0.928 . S
C2499 C2500 1.332 . S
C2499 C2501 1.345 . S
C2499 H2518 0.932 . S
C2500 C2499 1.332 . S
C2500 C2508 1.332 . S
C2501 C2499 1.345 . S
C2501 C2513 1.334 . S
C2501 H2519 0.928 1_556 S
H2502 C2506 0.932 . S
H2503 C2507 0.928 . S
H2504 C2508 0.932 . S
H2505 C2509 0.928 . S
C2506 C2497 1.332 . S
C2506 H2502 0.932 . S
C2506 C2507 1.345 . S
C2507 H2503 0.928 . S
C2507 C2506 1.345 . S
C2507 C2510 1.334 . S
C2508 C2500 1.332 . S
C2508 H2504 0.932 . S
C2508 C2509 1.345 . S
C2509 H2505 0.928 . S
C2509 C2508 1.345 . S
C2509 C2513 1.334 . S
C2510 C2498 1.334 . S
C2510 C2507 1.334 . S
C2510 C2511 1.487 . S
C2511 C2510 1.487 . S
C2511 C2512 1.185 . S
C2512 C2511 1.185 . S
C2512 C2515 1.482 . S
C2513 C2501 1.334 . S
C2513 C2509 1.334 . S
C2513 C2514 1.487 1_556 S
C2514 C2513 1.487 1_554 S
C2514 C2515 1.185 . S
C2515 C2512 1.482 . S
C2515 C2514 1.185 . S
H2516 C2496 0.932 . S
H2517 C2498 0.928 . S
H2518 C2499 0.932 . S
H2519 C2501 0.928 1_554 S
C2520 C2521 1.332 . S
C2520 C2522 1.345 . S
C2520 H2540 0.932 . S
C2521 C2520 1.332 . S
C2521 C2530 1.332 . S
C2522 C2520 1.345 . S
C2522 C2534 1.334 . S
C2522 H2541 0.928 . S
C2523 C2524 1.332 . S
C2523 C2525 1.345 . S
C2523 H2542 0.932 . S
C2524 C2523 1.332 . S
C2524 C2532 1.332 . S
C2525 C2523 1.345 . S
C2525 C2537 1.334 . S
C2525 H2543 0.928 . S
H2526 C2530 0.932 . S
H2527 C2531 0.928 . S
H2528 C2532 0.932 . S
H2529 C2533 0.928 . S
C2530 C2521 1.332 . S
C2530 H2526 0.932 . S
C2530 C2531 1.345 . S
C2531 H2527 0.928 . S
C2531 C2530 1.345 . S
C2531 C2534 1.334 . S
C2532 C2524 1.332 . S
C2532 H2528 0.932 . S
C2532 C2533 1.345 . S
C2533 H2529 0.928 . S
C2533 C2532 1.345 . S
C2533 C2537 1.334 . S
C2534 C2522 1.334 . S
C2534 C2531 1.334 . S
C2534 C2535 1.487 . S
C2535 C2534 1.487 . S
C2535 C2536 1.185 . S
C2536 C2535 1.185 . S
C2536 C2539 1.482 . S
C2537 C2525 1.334 . S
C2537 C2533 1.334 . S
C2537 C2538 1.487 . S
C2538 C2537 1.487 . S
C2538 C2539 1.185 . S
C2539 C2536 1.482 . S
C2539 C2538 1.185 . S
H2540 C2520 0.932 . S
H2541 C2522 0.928 . S
H2542 C2523 0.932 . S
H2543 C2525 0.928 . S
C2544 C2545 1.332 . S
C2544 C2546 1.345 . S
C2544 H2564 0.932 . S
C2545 C2544 1.332 . S
C2545 C2554 1.332 . S
C2546 C2544 1.345 . S
C2546 C2558 1.334 . S
C2546 H2565 0.928 . S
C2547 C2548 1.332 . S
C2547 C2549 1.345 . S
C2547 H2566 0.932 . S
C2548 C2547 1.332 . S
C2548 C2556 1.332 . S
C2549 C2547 1.345 . S
C2549 C2561 1.334 . S
C2549 H2567 0.928 1_554 S
H2550 C2554 0.932 . S
H2551 C2555 0.928 . S
H2552 C2556 0.932 . S
H2553 C2557 0.928 . S
C2554 C2545 1.332 . S
C2554 H2550 0.932 . S
C2554 C2555 1.345 . S
C2555 H2551 0.928 . S
C2555 C2554 1.345 . S
C2555 C2558 1.334 . S
C2556 C2548 1.332 . S
C2556 H2552 0.932 . S
C2556 C2557 1.345 . S
C2557 H2553 0.928 . S
C2557 C2556 1.345 . S
C2557 C2561 1.334 . S
C2558 C2546 1.334 . S
C2558 C2555 1.334 . S
C2558 C2559 1.487 . S
C2559 C2558 1.487 . S
C2559 C2560 1.185 . S
C2560 C2559 1.185 . S
C2560 C2563 1.482 . S
C2561 C2549 1.334 . S
C2561 C2557 1.334 . S
C2561 C2562 1.487 1_554 S
C2562 C2561 1.487 1_556 S
C2562 C2563 1.185 . S
C2563 C2560 1.482 . S
C2563 C2562 1.185 . S
H2564 C2544 0.932 . S
H2565 C2546 0.928 . S
H2566 C2547 0.932 . S
H2567 C2549 0.928 1_556 S
C2568 C2569 1.332 . S
C2568 C2570 1.345 . S
C2568 H2588 0.932 . S
C2569 C2568 1.332 . S
C2569 C2578 1.332 . S
C2570 C2568 1.345 . S
C2570 C2582 1.334 . S
C2570 H2589 0.928 . S
C2571 C2572 1.332 . S
C2571 C2573 1.345 . S
C2571 H2590 0.932 . S
C2572 C2571 1.332 . S
C2572 C2580 1.332 . S
C2573 C2571 1.345 . S
C2573 C2585 1.334 . S
C2573 H2591 0.928 . S
H2574 C2578 0.932 . S
H2575 C2579 0.928 . S
H2576 C2580 0.932 . S
H2577 C2581 0.928 . S
C2578 C2569 1.332 . S
C2578 H2574 0.932 . S
C2578 C2579 1.345 . S
C2579 H2575 0.928 . S
C2579 C2578 1.345 . S
C2579 C2582 1.334 . S
C2580 C2572 1.332 . S
C2580 H2576 0.932 . S
C2580 C2581 1.345 . S
C2581 H2577 0.928 . S
C2581 C2580 1.345 . S
C2581 C2585 1.334 . S
C2582 C2570 1.334 . S
C2582 C2579 1.334 . S
C2582 C2583 1.487 . S
C2583 C2582 1.487 . S
C2583 C2584 1.185 . S
C2584 C2583 1.185 . S
C2584 C2587 1.482 . S
C2585 C2573 1.334 . S
C2585 C2581 1.334 . S
C2585 C2586 1.487 . S
C2586 C2585 1.487 . S
C2586 C2587 1.185 . S
C2587 C2584 1.482 . S
C2587 C2586 1.185 . S
H2588 C2568 0.932 . S
H2589 C2570 0.928 . S
H2590 C2571 0.932 . S
H2591 C2573 0.928 . S
C2592 C2593 1.332 . S
C2592 C2594 1.345 . S
C2592 H2612 0.932 . S
C2593 C2592 1.332 . S
C2593 C2602 1.332 . S
C2594 C2592 1.345 . S
C2594 C2606 1.334 . S
C2594 H2613 0.928 . S
C2595 C2596 1.332 . S
C2595 C2597 1.345 . S
C2595 H2614 0.932 . S
C2596 C2595 1.332 . S
C2596 C2604 1.332 . S
C2597 C2595 1.345 . S
C2597 C2609 1.334 . S
C2597 H2615 0.928 . S
H2598 C2602 0.932 . S
H2599 C2603 0.928 . S
H2600 C2604 0.932 . S
H2601 C2605 0.928 . S
C2602 C2593 1.332 . S
C2602 H2598 0.932 . S
C2602 C2603 1.345 . S
C2603 H2599 0.928 . S
C2603 C2602 1.345 . S
C2603 C2606 1.334 . S
C2604 C2596 1.332 . S
C2604 H2600 0.932 . S
C2604 C2605 1.345 . S
C2605 H2601 0.928 . S
C2605 C2604 1.345 . S
C2605 C2609 1.334 . S
C2606 C2594 1.334 . S
C2606 C2603 1.334 . S
C2606 C2607 1.487 . S
C2607 C2606 1.487 . S
C2607 C2608 1.185 . S
C2608 C2607 1.185 . S
C2608 C2611 1.482 . S
C2609 C2597 1.334 . S
C2609 C2605 1.334 . S
C2609 C2610 1.487 1_455 S
C2610 C2609 1.487 1_655 S
C2610 C2611 1.185 . S
C2611 C2608 1.482 . S
C2611 C2610 1.185 . S
H2612 C2592 0.932 . S
H2613 C2594 0.928 . S
H2614 C2595 0.932 . S
H2615 C2597 0.928 . S
C2616 C2617 1.332 . S
C2616 C2618 1.345 . S
C2616 H2636 0.932 . S
C2617 C2616 1.332 . S
C2617 C2626 1.332 . S
C2618 C2616 1.345 . S
C2618 C2630 1.334 . S
C2618 H2637 0.928 . S
C2619 C2620 1.332 . S
C2619 C2621 1.345 . S
C2619 H2638 0.932 . S
C2620 C2619 1.332 . S
C2620 C2628 1.332 . S
C2621 C2619 1.345 . S
C2621 C2633 1.334 . S
C2621 H2639 0.928 . S
H2622 C2626 0.932 . S
H2623 C2627 0.928 . S
H2624 C2628 0.932 . S
H2625 C2629 0.928 . S
C2626 C2617 1.332 . S
C2626 H2622 0.932 . S
C2626 C2627 1.345 . S
C2627 H2623 0.928 . S
C2627 C2626 1.345 . S
C2627 C2630 1.334 . S
C2628 C2620 1.332 . S
C2628 H2624 0.932 . S
C2628 C2629 1.345 . S
C2629 H2625 0.928 . S
C2629 C2628 1.345 . S
C2629 C2633 1.334 . S
C2630 C2618 1.334 . S
C2630 C2627 1.334 . S
C2630 C2631 1.487 1_655 S
C2631 C2630 1.487 1_455 S
C2631 C2632 1.185 . S
C2632 C2631 1.185 . S
C2632 C2635 1.482 . S
C2633 C2621 1.334 . S
C2633 C2629 1.334 . S
C2633 C2634 1.487 . S
C2634 C2633 1.487 . S
C2634 C2635 1.185 . S
C2635 C2632 1.482 . S
C2635 C2634 1.185 . S
H2636 C2616 0.932 . S
H2637 C2618 0.928 . S
H2638 C2619 0.932 . S
H2639 C2621 0.928 . S
C2640 C2641 1.332 . S
C2640 C2642 1.345 . S
C2640 H2660 0.932 . S
C2641 C2640 1.332 . S
C2641 C2650 1.332 . S
C2642 C2640 1.345 . S
C2642 C2654 1.334 . S
C2642 H2661 0.928 . S
C2643 C2644 1.332 . S
C2643 C2645 1.345 . S
C2643 H2662 0.932 . S
C2644 C2643 1.332 . S
C2644 C2652 1.332 . S
C2645 C2643 1.345 . S
C2645 C2657 1.334 . S
C2645 H2663 0.928 . S
H2646 C2650 0.932 . S
H2647 C2651 0.928 . S
H2648 C2652 0.932 . S
H2649 C2653 0.928 . S
C2650 C2641 1.332 . S
C2650 H2646 0.932 . S
C2650 C2651 1.345 . S
C2651 H2647 0.928 . S
C2651 C2650 1.345 . S
C2651 C2654 1.334 . S
C2652 C2644 1.332 . S
C2652 H2648 0.932 . S
C2652 C2653 1.345 . S
C2653 H2649 0.928 . S
C2653 C2652 1.345 . S
C2653 C2657 1.334 . S
C2654 C2642 1.334 . S
C2654 C2651 1.334 . S
C2654 C2655 1.487 . S
C2655 C2654 1.487 . S
C2655 C2656 1.185 . S
C2656 C2655 1.185 . S
C2656 C2659 1.482 . S
C2657 C2645 1.334 . S
C2657 C2653 1.334 . S
C2657 C2658 1.487 . S
C2658 C2657 1.487 . S
C2658 C2659 1.185 . S
C2659 C2656 1.482 . S
C2659 C2658 1.185 . S
H2660 C2640 0.932 . S
H2661 C2642 0.928 . S
H2662 C2643 0.932 . S
H2663 C2645 0.928 . S
C2664 C2665 1.332 . S
C2664 C2666 1.345 . S
C2664 H2684 0.932 . S
C2665 C2664 1.332 . S
C2665 C2674 1.332 . S
C2666 C2664 1.345 . S
C2666 C2678 1.334 . S
C2666 H2685 0.928 . S
C2667 C2668 1.332 . S
C2667 C2669 1.345 . S
C2667 H2686 0.932 . S
C2668 C2667 1.332 . S
C2668 C2676 1.332 . S
C2669 C2667 1.345 . S
C2669 C2681 1.334 . S
C2669 H2687 0.928 . S
H2670 C2674 0.932 . S
H2671 C2675 0.928 . S
H2672 C2676 0.932 . S
H2673 C2677 0.928 . S
C2674 C2665 1.332 . S
C2674 H2670 0.932 . S
C2674 C2675 1.345 . S
C2675 H2671 0.928 . S
C2675 C2674 1.345 . S
C2675 C2678 1.334 . S
C2676 C2668 1.332 . S
C2676 H2672 0.932 . S
C2676 C2677 1.345 . S
C2677 H2673 0.928 . S
C2677 C2676 1.345 . S
C2677 C2681 1.334 . S
C2678 C2666 1.334 . S
C2678 C2675 1.334 . S
C2678 C2679 1.487 . S
C2679 C2678 1.487 . S
C2679 C2680 1.185 . S
C2680 C2679 1.185 . S
C2680 C2683 1.482 . S
C2681 C2669 1.334 . S
C2681 C2677 1.334 . S
C2681 C2682 1.487 . S
C2682 C2681 1.487 . S
C2682 C2683 1.185 . S
C2683 C2680 1.482 . S
C2683 C2682 1.185 . S
H2684 C2664 0.932 . S
H2685 C2666 0.928 . S
H2686 C2667 0.932 . S
H2687 C2669 0.928 . S
C2688 C2689 1.332 . S
C2688 C2690 1.345 . S
C2688 H2708 0.932 . S
C2689 C2688 1.332 . S
C2689 C2698 1.332 . S
C2690 C2688 1.345 . S
C2690 C2702 1.334 . S
C2690 H2709 0.928 . S
C2691 C2692 1.332 . S
C2691 C2693 1.345 . S
C2691 H2710 0.932 . S
C2692 C2691 1.332 . S
C2692 C2700 1.332 . S
C2693 C2691 1.345 . S
C2693 C2705 1.334 . S
C2693 H2711 0.928 . S
H2694 C2698 0.932 . S
H2695 C2699 0.928 . S
H2696 C2700 0.932 . S
H2697 C2701 0.928 . S
C2698 C2689 1.332 . S
C2698 H2694 0.932 . S
C2698 C2699 1.345 . S
C2699 H2695 0.928 . S
C2699 C2698 1.345 . S
C2699 C2702 1.334 . S
C2700 C2692 1.332 . S
C2700 H2696 0.932 . S
C2700 C2701 1.345 . S
C2701 H2697 0.928 . S
C2701 C2700 1.345 . S
C2701 C2705 1.334 . S
C2702 C2690 1.334 . S
C2702 C2699 1.334 . S
C2702 C2703 1.487 . S
C2703 C2702 1.487 . S
C2703 C2704 1.185 . S
C2704 C2703 1.185 . S
C2704 C2707 1.482 . S
C2705 C2693 1.334 . S
C2705 C2701 1.334 . S
C2705 C2706 1.487 1_545 S
C2706 C2705 1.487 1_565 S
C2706 C2707 1.185 . S
C2707 C2704 1.482 . S
C2707 C2706 1.185 . S
H2708 C2688 0.932 . S
H2709 C2690 0.928 . S
H2710 C2691 0.932 . S
H2711 C2693 0.928 . S
C2712 C2713 1.332 . S
C2712 C2714 1.345 . S
C2712 H2732 0.932 . S
C2713 C2712 1.332 . S
C2713 C2722 1.332 . S
C2714 C2712 1.345 . S
C2714 C2726 1.334 . S
C2714 H2733 0.928 . S
C2715 C2716 1.332 . S
C2715 C2717 1.345 . S
C2715 H2734 0.932 . S
C2716 C2715 1.332 . S
C2716 C2724 1.332 . S
C2717 C2715 1.345 . S
C2717 C2729 1.334 . S
C2717 H2735 0.928 . S
H2718 C2722 0.932 . S
H2719 C2723 0.928 1_545 S
H2720 C2724 0.932 . S
H2721 C2725 0.928 . S
C2722 C2713 1.332 . S
C2722 H2718 0.932 . S
C2722 C2723 1.345 . S
C2723 H2719 0.928 1_565 S
C2723 C2722 1.345 . S
C2723 C2726 1.334 . S
C2724 C2716 1.332 . S
C2724 H2720 0.932 . S
C2724 C2725 1.345 . S
C2725 H2721 0.928 . S
C2725 C2724 1.345 . S
C2725 C2729 1.334 . S
C2726 C2714 1.334 . S
C2726 C2723 1.334 . S
C2726 C2727 1.487 1_565 S
C2727 C2726 1.487 1_545 S
C2727 C2728 1.185 . S
C2728 C2727 1.185 . S
C2728 C2731 1.482 . S
C2729 C2717 1.334 . S
C2729 C2725 1.334 . S
C2729 C2730 1.487 . S
C2730 C2729 1.487 . S
C2730 C2731 1.185 . S
C2731 C2728 1.482 . S
C2731 C2730 1.185 . S
H2732 C2712 0.932 . S
H2733 C2714 0.928 . S
H2734 C2715 0.932 . S
H2735 C2717 0.928 . S
C2736 C2737 1.332 . S
C2736 C2738 1.345 . S
C2736 H2756 0.932 . S
C2737 C2736 1.332 . S
C2737 C2746 1.332 . S
C2738 C2736 1.345 . S
C2738 C2750 1.334 . S
C2738 H2757 0.928 . S
C2739 C2740 1.332 . S
C2739 C2741 1.345 . S
C2739 H2758 0.932 . S
C2740 C2739 1.332 . S
C2740 C2748 1.332 . S
C2741 C2739 1.345 . S
C2741 C2753 1.334 . S
C2741 H2759 0.928 . S
H2742 C2746 0.932 . S
H2743 C2747 0.928 . S
H2744 C2748 0.932 . S
H2745 C2749 0.928 . S
C2746 C2737 1.332 . S
C2746 H2742 0.932 . S
C2746 C2747 1.345 . S
C2747 H2743 0.928 . S
C2747 C2746 1.345 . S
C2747 C2750 1.334 . S
C2748 C2740 1.332 . S
C2748 H2744 0.932 . S
C2748 C2749 1.345 . S
C2749 H2745 0.928 . S
C2749 C2748 1.345 . S
C2749 C2753 1.334 . S
C2750 C2738 1.334 . S
C2750 C2747 1.334 . S
C2750 C2751 1.487 . S
C2751 C2750 1.487 . S
C2751 C2752 1.185 . S
C2752 C2751 1.185 . S
C2752 C2755 1.482 . S
C2753 C2741 1.334 . S
C2753 C2749 1.334 . S
C2753 C2754 1.487 . S
C2754 C2753 1.487 . S
C2754 C2755 1.185 . S
C2755 C2752 1.482 . S
C2755 C2754 1.185 . S
H2756 C2736 0.932 . S
H2757 C2738 0.928 . S
H2758 C2739 0.932 . S
H2759 C2741 0.928 . S
C2760 C2761 1.332 . S
C2760 C2762 1.345 . S
C2760 H2780 0.932 . S
C2761 C2760 1.332 . S
C2761 C2770 1.332 . S
C2762 C2760 1.345 . S
C2762 C2774 1.334 . S
C2762 H2781 0.928 . S
C2763 C2764 1.332 . S
C2763 C2765 1.345 . S
C2763 H2782 0.932 . S
C2764 C2763 1.332 . S
C2764 C2772 1.332 . S
C2765 C2763 1.345 . S
C2765 C2777 1.334 . S
C2765 H2783 0.928 . S
H2766 C2770 0.932 . S
H2767 C2771 0.928 . S
H2768 C2772 0.932 . S
H2769 C2773 0.928 . S
C2770 C2761 1.332 . S
C2770 H2766 0.932 . S
C2770 C2771 1.345 . S
C2771 H2767 0.928 . S
C2771 C2770 1.345 . S
C2771 C2774 1.334 . S
C2772 C2764 1.332 . S
C2772 H2768 0.932 . S
C2772 C2773 1.345 . S
C2773 H2769 0.928 . S
C2773 C2772 1.345 . S
C2773 C2777 1.334 . S
C2774 C2762 1.334 . S
C2774 C2771 1.334 . S
C2774 C2775 1.487 . S
C2775 C2774 1.487 . S
C2775 C2776 1.185 . S
C2776 C2775 1.185 . S
C2776 C2779 1.482 . S
C2777 C2765 1.334 . S
C2777 C2773 1.334 . S
C2777 C2778 1.487 . S
C2778 C2777 1.487 . S
C2778 C2779 1.185 . S
C2779 C2776 1.482 . S
C2779 C2778 1.185 . S
H2780 C2760 0.932 . S
H2781 C2762 0.928 . S
H2782 C2763 0.932 . S
H2783 C2765 0.928 . S
C2784 C2785 1.332 . S
C2784 C2786 1.345 . S
C2784 H2804 0.932 . S
C2785 C2784 1.332 . S
C2785 C2794 1.332 . S
C2786 C2784 1.345 . S
C2786 C2798 1.334 . S
C2786 H2805 0.928 1_554 S
C2787 C2788 1.332 . S
C2787 C2789 1.345 . S
C2787 H2806 0.932 . S
C2788 C2787 1.332 . S
C2788 C2796 1.332 . S
C2789 C2787 1.345 . S
C2789 C2801 1.334 . S
C2789 H2807 0.928 . S
H2790 C2794 0.932 . S
H2791 C2795 0.928 . S
H2792 C2796 0.932 . S
H2793 C2797 0.928 . S
C2794 C2785 1.332 . S
C2794 H2790 0.932 . S
C2794 C2795 1.345 . S
C2795 H2791 0.928 . S
C2795 C2794 1.345 . S
C2795 C2798 1.334 . S
C2796 C2788 1.332 . S
C2796 H2792 0.932 . S
C2796 C2797 1.345 . S
C2797 H2793 0.928 . S
C2797 C2796 1.345 . S
C2797 C2801 1.334 . S
C2798 C2786 1.334 . S
C2798 C2795 1.334 . S
C2798 C2799 1.487 1_554 S
C2799 C2798 1.487 1_556 S
C2799 C2800 1.185 . S
C2800 C2799 1.185 . S
C2800 C2803 1.482 . S
C2801 C2789 1.334 . S
C2801 C2797 1.334 . S
C2801 C2802 1.487 . S
C2802 C2801 1.487 . S
C2802 C2803 1.185 . S
C2803 C2800 1.482 . S
C2803 C2802 1.185 . S
H2804 C2784 0.932 . S
H2805 C2786 0.928 1_556 S
H2806 C2787 0.932 . S
H2807 C2789 0.928 . S
C2808 C2809 1.332 . S
C2808 C2810 1.345 . S
C2808 H2828 0.932 . S
C2809 C2808 1.332 . S
C2809 C2818 1.332 . S
C2810 C2808 1.345 . S
C2810 C2822 1.334 . S
C2810 H2829 0.928 . S
C2811 C2812 1.332 . S
C2811 C2813 1.345 . S
C2811 H2830 0.932 . S
C2812 C2811 1.332 . S
C2812 C2820 1.332 . S
C2813 C2811 1.345 . S
C2813 C2825 1.334 . S
C2813 H2831 0.928 . S
H2814 C2818 0.932 . S
H2815 C2819 0.928 . S
H2816 C2820 0.932 . S
H2817 C2821 0.928 . S
C2818 C2809 1.332 . S
C2818 H2814 0.932 . S
C2818 C2819 1.345 . S
C2819 H2815 0.928 . S
C2819 C2818 1.345 . S
C2819 C2822 1.334 . S
C2820 C2812 1.332 . S
C2820 H2816 0.932 . S
C2820 C2821 1.345 . S
C2821 H2817 0.928 . S
C2821 C2820 1.345 . S
C2821 C2825 1.334 . S
C2822 C2810 1.334 . S
C2822 C2819 1.334 . S
C2822 C2823 1.487 . S
C2823 C2822 1.487 . S
C2823 C2824 1.185 . S
C2824 C2823 1.185 . S
C2824 C2827 1.482 . S
C2825 C2813 1.334 . S
C2825 C2821 1.334 . S
C2825 C2826 1.487 . S
C2826 C2825 1.487 . S
C2826 C2827 1.185 . S
C2827 C2824 1.482 . S
C2827 C2826 1.185 . S
H2828 C2808 0.932 . S
H2829 C2810 0.928 . S
H2830 C2811 0.932 . S
H2831 C2813 0.928 . S
C2832 C2833 1.332 . S
C2832 C2834 1.345 . S
C2832 H2852 0.932 . S
C2833 C2832 1.332 . S
C2833 C2842 1.332 . S
C2834 C2832 1.345 . S
C2834 C2846 1.334 . S
C2834 H2853 0.928 . S
C2835 C2836 1.332 . S
C2835 C2837 1.345 . S
C2835 H2854 0.932 . S
C2836 C2835 1.332 . S
C2836 C2844 1.332 . S
C2837 C2835 1.345 . S
C2837 C2849 1.334 . S
C2837 H2855 0.928 . S
H2838 C2842 0.932 . S
H2839 C2843 0.928 . S
H2840 C2844 0.932 . S
H2841 C2845 0.928 1_554 S
C2842 C2833 1.332 . S
C2842 H2838 0.932 . S
C2842 C2843 1.345 . S
C2843 H2839 0.928 . S
C2843 C2842 1.345 . S
C2843 C2846 1.334 . S
C2844 C2836 1.332 . S
C2844 H2840 0.932 . S
C2844 C2845 1.345 . S
C2845 H2841 0.928 1_556 S
C2845 C2844 1.345 . S
C2845 C2849 1.334 . S
C2846 C2834 1.334 . S
C2846 C2843 1.334 . S
C2846 C2847 1.487 . S
C2847 C2846 1.487 . S
C2847 C2848 1.185 . S
C2848 C2847 1.185 . S
C2848 C2851 1.482 . S
C2849 C2837 1.334 . S
C2849 C2845 1.334 . S
C2849 C2850 1.487 1_556 S
C2850 C2849 1.487 1_554 S
C2850 C2851 1.185 . S
C2851 C2848 1.482 . S
C2851 C2850 1.185 . S
H2852 C2832 0.932 . S
H2853 C2834 0.928 . S
H2854 C2835 0.932 . S
H2855 C2837 0.928 . S
C2856 C2857 1.332 . S
C2856 C2858 1.345 . S
C2856 H2876 0.932 . S
C2857 C2856 1.332 . S
C2857 C2866 1.332 . S
C2858 C2856 1.345 . S
C2858 C2870 1.334 . S
C2858 H2877 0.928 . S
C2859 C2860 1.332 . S
C2859 C2861 1.345 . S
C2859 H2878 0.932 . S
C2860 C2859 1.332 . S
C2860 C2868 1.332 . S
C2861 C2859 1.345 . S
C2861 C2873 1.334 . S
C2861 H2879 0.928 . S
H2862 C2866 0.932 . S
H2863 C2867 0.928 . S
H2864 C2868 0.932 . S
H2865 C2869 0.928 . S
C2866 C2857 1.332 . S
C2866 H2862 0.932 . S
C2866 C2867 1.345 . S
C2867 H2863 0.928 . S
C2867 C2866 1.345 . S
C2867 C2870 1.334 . S
C2868 C2860 1.332 . S
C2868 H2864 0.932 . S
C2868 C2869 1.345 . S
C2869 H2865 0.928 . S
C2869 C2868 1.345 . S
C2869 C2873 1.334 . S
C2870 C2858 1.334 . S
C2870 C2867 1.334 . S
C2870 C2871 1.487 . S
C2871 C2870 1.487 . S
C2871 C2872 1.185 . S
C2872 C2871 1.185 . S
C2872 C2875 1.482 . S
C2873 C2861 1.334 . S
C2873 C2869 1.334 . S
C2873 C2874 1.487 . S
C2874 C2873 1.487 . S
C2874 C2875 1.185 . S
C2875 C2872 1.482 . S
C2875 C2874 1.185 . S
H2876 C2856 0.932 . S
H2877 C2858 0.928 . S
H2878 C2859 0.932 . S
H2879 C2861 0.928 . S
C2880 C2881 1.332 . S
C2880 C2882 1.345 . S
C2880 H2900 0.932 . S
C2881 C2880 1.332 . S
C2881 C2890 1.332 . S
C2882 C2880 1.345 . S
C2882 C2894 1.334 . S
C2882 H2901 0.928 . S
C2883 C2884 1.332 . S
C2883 C2885 1.345 . S
C2883 H2902 0.932 . S
C2884 C2883 1.332 . S
C2884 C2892 1.332 . S
C2885 C2883 1.345 . S
C2885 C2897 1.334 . S
C2885 H2903 0.928 . S
H2886 C2890 0.932 . S
H2887 C2891 0.928 . S
H2888 C2892 0.932 . S
H2889 C2893 0.928 . S
C2890 C2881 1.332 . S
C2890 H2886 0.932 . S
C2890 C2891 1.345 . S
C2891 H2887 0.928 . S
C2891 C2890 1.345 . S
C2891 C2894 1.334 . S
C2892 C2884 1.332 . S
C2892 H2888 0.932 . S
C2892 C2893 1.345 . S
C2893 H2889 0.928 . S
C2893 C2892 1.345 . S
C2893 C2897 1.334 . S
C2894 C2882 1.334 . S
C2894 C2891 1.334 . S
C2894 C2895 1.487 1_655 S
C2895 C2894 1.487 1_455 S
C2895 C2896 1.185 . S
C2896 C2895 1.185 . S
C2896 C2899 1.482 . S
C2897 C2885 1.334 . S
C2897 C2893 1.334 . S
C2897 C2898 1.487 . S
C2898 C2897 1.487 . S
C2898 C2899 1.185 . S
C2899 C2896 1.482 . S
C2899 C2898 1.185 . S
H2900 C2880 0.932 . S
H2901 C2882 0.928 . S
H2902 C2883 0.932 . S
H2903 C2885 0.928 . S
C2904 C2905 1.332 . S
C2904 C2906 1.345 . S
C2904 H2924 0.932 . S
C2905 C2904 1.332 . S
C2905 C2914 1.332 . S
C2906 C2904 1.345 . S
C2906 C2918 1.334 . S
C2906 H2925 0.928 . S
C2907 C2908 1.332 . S
C2907 C2909 1.345 . S
C2907 H2926 0.932 . S
C2908 C2907 1.332 . S
C2908 C2916 1.332 . S
C2909 C2907 1.345 . S
C2909 C2921 1.334 . S
C2909 H2927 0.928 . S
H2910 C2914 0.932 . S
H2911 C2915 0.928 1_655 S
H2912 C2916 0.932 . S
H2913 C2917 0.928 . S
C2914 C2905 1.332 . S
C2914 H2910 0.932 . S
C2914 C2915 1.345 . S
C2915 H2911 0.928 1_455 S
C2915 C2914 1.345 . S
C2915 C2918 1.334 . S
C2916 C2908 1.332 . S
C2916 H2912 0.932 . S
C2916 C2917 1.345 . S
C2917 H2913 0.928 . S
C2917 C2916 1.345 . S
C2917 C2921 1.334 . S
C2918 C2906 1.334 . S
C2918 C2915 1.334 . S
C2918 C2919 1.487 1_455 S
C2919 C2918 1.487 1_655 S
C2919 C2920 1.185 . S
C2920 C2919 1.185 . S
C2920 C2923 1.482 . S
C2921 C2909 1.334 . S
C2921 C2917 1.334 . S
C2921 C2922 1.487 . S
C2922 C2921 1.487 . S
C2922 C2923 1.185 . S
C2923 C2920 1.482 . S
C2923 C2922 1.185 . S
H2924 C2904 0.932 . S
H2925 C2906 0.928 . S
H2926 C2907 0.932 . S
H2927 C2909 0.928 . S
C2928 C2929 1.332 . S
C2928 C2930 1.345 . S
C2928 H2948 0.932 . S
C2929 C2928 1.332 . S
C2929 C2938 1.332 . S
C2930 C2928 1.345 . S
C2930 C2942 1.334 . S
C2930 H2949 0.928 . S
C2931 C2932 1.332 . S
C2931 C2933 1.345 . S
C2931 H2950 0.932 . S
C2932 C2931 1.332 . S
C2932 C2940 1.332 . S
C2933 C2931 1.345 . S
C2933 C2945 1.334 . S
C2933 H2951 0.928 . S
H2934 C2938 0.932 . S
H2935 C2939 0.928 . S
H2936 C2940 0.932 . S
H2937 C2941 0.928 . S
C2938 C2929 1.332 . S
C2938 H2934 0.932 . S
C2938 C2939 1.345 . S
C2939 H2935 0.928 . S
C2939 C2938 1.345 . S
C2939 C2942 1.334 . S
C2940 C2932 1.332 . S
C2940 H2936 0.932 . S
C2940 C2941 1.345 . S
C2941 H2937 0.928 . S
C2941 C2940 1.345 . S
C2941 C2945 1.334 . S
C2942 C2930 1.334 . S
C2942 C2939 1.334 . S
C2942 C2943 1.487 . S
C2943 C2942 1.487 . S
C2943 C2944 1.185 . S
C2944 C2943 1.185 . S
C2944 C2947 1.482 . S
C2945 C2933 1.334 . S
C2945 C2941 1.334 . S
C2945 C2946 1.487 . S
C2946 C2945 1.487 . S
C2946 C2947 1.185 . S
C2947 C2944 1.482 . S
C2947 C2946 1.185 . S
H2948 C2928 0.932 . S
H2949 C2930 0.928 . S
H2950 C2931 0.932 . S
H2951 C2933 0.928 . S
C2952 C2953 1.332 . S
C2952 C2954 1.345 . S
C2952 H2972 0.932 . S
C2953 C2952 1.332 . S
C2953 C2962 1.332 . S
C2954 C2952 1.345 . S
C2954 C2966 1.334 . S
C2954 H2973 0.928 . S
C2955 C2956 1.332 . S
C2955 C2957 1.345 . S
C2955 H2974 0.932 . S
C2956 C2955 1.332 . S
C2956 C2964 1.332 . S
C2957 C2955 1.345 . S
C2957 C2969 1.334 . S
C2957 H2975 0.928 . S
H2958 C2962 0.932 . S
H2959 C2963 0.928 . S
H2960 C2964 0.932 . S
H2961 C2965 0.928 . S
C2962 C2953 1.332 . S
C2962 H2958 0.932 . S
C2962 C2963 1.345 . S
C2963 H2959 0.928 . S
C2963 C2962 1.345 . S
C2963 C2966 1.334 . S
C2964 C2956 1.332 . S
C2964 H2960 0.932 . S
C2964 C2965 1.345 . S
C2965 H2961 0.928 . S
C2965 C2964 1.345 . S
C2965 C2969 1.334 . S
C2966 C2954 1.334 . S
C2966 C2963 1.334 . S
C2966 C2967 1.487 . S
C2967 C2966 1.487 . S
C2967 C2968 1.185 . S
C2968 C2967 1.185 . S
C2968 C2971 1.482 . S
C2969 C2957 1.334 . S
C2969 C2965 1.334 . S
C2969 C2970 1.487 . S
C2970 C2969 1.487 . S
C2970 C2971 1.185 . S
C2971 C2968 1.482 . S
C2971 C2970 1.185 . S
H2972 C2952 0.932 . S
H2973 C2954 0.928 . S
H2974 C2955 0.932 . S
H2975 C2957 0.928 . S
C2976 C2977 1.332 . S
C2976 C2978 1.345 . S
C2976 H2996 0.932 . S
C2977 C2976 1.332 . S
C2977 C2986 1.332 . S
C2978 C2976 1.345 . S
C2978 C2990 1.334 . S
C2978 H2997 0.928 . S
C2979 C2980 1.332 . S
C2979 C2981 1.345 . S
C2979 H2998 0.932 . S
C2980 C2979 1.332 . S
C2980 C2988 1.332 . S
C2981 C2979 1.345 . S
C2981 C2993 1.334 . S
C2981 H2999 0.928 . S
H2982 C2986 0.932 . S
H2983 C2987 0.928 . S
H2984 C2988 0.932 . S
H2985 C2989 0.928 . S
C2986 C2977 1.332 . S
C2986 H2982 0.932 . S
C2986 C2987 1.345 . S
C2987 H2983 0.928 . S
C2987 C2986 1.345 . S
C2987 C2990 1.334 . S
C2988 C2980 1.332 . S
C2988 H2984 0.932 . S
C2988 C2989 1.345 . S
C2989 H2985 0.928 . S
C2989 C2988 1.345 . S
C2989 C2993 1.334 . S
C2990 C2978 1.334 . S
C2990 C2987 1.334 . S
C2990 C2991 1.487 1_565 S
C2991 C2990 1.487 1_545 S
C2991 C2992 1.185 . S
C2992 C2991 1.185 . S
C2992 C2995 1.482 . S
C2993 C2981 1.334 . S
C2993 C2989 1.334 . S
C2993 C2994 1.487 . S
C2994 C2993 1.487 . S
C2994 C2995 1.185 . S
C2995 C2992 1.482 . S
C2995 C2994 1.185 . S
H2996 C2976 0.932 . S
H2997 C2978 0.928 . S
H2998 C2979 0.932 . S
H2999 C2981 0.928 . S
C3000 C3001 1.332 . S
C3000 C3002 1.345 . S
C3000 H3020 0.932 . S
C3001 C3000 1.332 . S
C3001 C3010 1.332 . S
C3002 C3000 1.345 . S
C3002 C3014 1.334 . S
C3002 H3021 0.928 . S
C3003 C3004 1.332 . S
C3003 C3005 1.345 . S
C3003 H3022 0.932 . S
C3004 C3003 1.332 . S
C3004 C3012 1.332 . S
C3005 C3003 1.345 . S
C3005 C3017 1.334 . S
C3005 H3023 0.928 . S
H3006 C3010 0.932 . S
H3007 C3011 0.928 . S
H3008 C3012 0.932 . S
H3009 C3013 0.928 . S
C3010 C3001 1.332 . S
C3010 H3006 0.932 . S
C3010 C3011 1.345 . S
C3011 H3007 0.928 . S
C3011 C3010 1.345 . S
C3011 C3014 1.334 . S
C3012 C3004 1.332 . S
C3012 H3008 0.932 . S
C3012 C3013 1.345 . S
C3013 H3009 0.928 . S
C3013 C3012 1.345 . S
C3013 C3017 1.334 . S
C3014 C3002 1.334 . S
C3014 C3011 1.334 . S
C3014 C3015 1.487 1_545 S
C3015 C3014 1.487 1_565 S
C3015 C3016 1.185 . S
C3016 C3015 1.185 . S
C3016 C3019 1.482 . S
C3017 C3005 1.334 . S
C3017 C3013 1.334 . S
C3017 C3018 1.487 . S
C3018 C3017 1.487 . S
C3018 C3019 1.185 . S
C3019 C3016 1.482 . S
C3019 C3018 1.185 . S
H3020 C3000 0.932 . S
H3021 C3002 0.928 . S
H3022 C3003 0.932 . S
H3023 C3005 0.928 . S
C3024 C3025 1.332 . S
C3024 C3026 1.345 . S
C3024 H3044 0.932 . S
C3025 C3024 1.332 . S
C3025 C3034 1.332 . S
C3026 C3024 1.345 . S
C3026 C3038 1.334 . S
C3026 H3045 0.928 . S
C3027 C3028 1.332 . S
C3027 C3029 1.345 . S
C3027 H3046 0.932 . S
C3028 C3027 1.332 . S
C3028 C3036 1.332 . S
C3029 C3027 1.345 . S
C3029 C3041 1.334 . S
C3029 H3047 0.928 . S
H3030 C3034 0.932 . S
H3031 C3035 0.928 . S
H3032 C3036 0.932 . S
H3033 C3037 0.928 . S
C3034 C3025 1.332 . S
C3034 H3030 0.932 . S
C3034 C3035 1.345 . S
C3035 H3031 0.928 . S
C3035 C3034 1.345 . S
C3035 C3038 1.334 . S
C3036 C3028 1.332 . S
C3036 H3032 0.932 . S
C3036 C3037 1.345 . S
C3037 H3033 0.928 . S
C3037 C3036 1.345 . S
C3037 C3041 1.334 . S
C3038 C3026 1.334 . S
C3038 C3035 1.334 . S
C3038 C3039 1.487 . S
C3039 C3038 1.487 . S
C3039 C3040 1.185 . S
C3040 C3039 1.185 . S
C3040 C3043 1.482 . S
C3041 C3029 1.334 . S
C3041 C3037 1.334 . S
C3041 C3042 1.487 . S
C3042 C3041 1.487 . S
C3042 C3043 1.185 . S
C3043 C3040 1.482 . S
C3043 C3042 1.185 . S
H3044 C3024 0.932 . S
H3045 C3026 0.928 . S
H3046 C3027 0.932 . S
H3047 C3029 0.928 . S
C745 C578 0.874 . S
C748 C10 0.871 . S
C769 C61 0.889 . S
C772 C609 0.893 . S
C793 C497 0.874 . S
C796 C92 0.871 . S
C817 C123 0.889 . S
C820 C528 0.893 . S
C841 C702 0.880 . S
C844 C134 0.878 . S
C865 C653 1.085 . S
C868 C165 1.073 . S
C889 C733 0.880 . S
C892 C216 0.878 . S
C913 C649 1.085 . S
C916 C247 1.073 . S
C937 C258 0.879 . S
C940 C404 0.880 . S
C961 C485 0.880 . S
C964 C289 0.879 . S
C985 C340 0.898 . S
C988 C454 0.901 . S
C1009 C373 0.901 . S
C1012 C371 0.898 . S
C1033 C187 0.892 . S
C1036 C402 0.888 . S
C1057 C218 0.901 . S
C1060 C433 0.897 . S
C1081 C144 0.892 . S
C1084 C444 0.888 . S
C1105 C475 0.897 . S
C1108 C175 0.901 . S
C1129 C311 0.870 . S
C1132 C526 0.867 . S
C1153 C557 0.875 . S
C1156 C299 0.877 . S
C1177 C342 0.870 . S
C1180 C568 0.867 . S
C1201 C268 0.877 . S
C1204 C599 0.875 . S
C1225 C620 0.917 . S
C1228 C32 0.931 . S
C1249 C94 0.931 . S
C1252 C670 0.917 . S
C1273 C692 0.893 . S
C1276 C63 0.895 . S
C1297 C723 0.893 . S
C1300 C20 0.895 . S
C1321 C249 1.351 . S
C1324 C2 1.443 . S
C1345 C60 1.415 . S
C1348 C361 1.327 . S
C1369 C91 1.443 . S
C1372 C280 1.351 . S
C1393 C122 1.415 . S
C1396 C330 1.327 . S
C1417 C126 1.432 . S
C1420 C1 1.342 . S
C1441 C157 1.427 . S
C1444 C51 1.339 . S
C1465 C82 1.342 . S
C1468 C215 1.432 . S
C1489 C246 1.427 . S
C1492 C113 1.339 . S
C1513 C125 1.358 . S
C1516 C250 1.450 . S
C1537 C281 1.450 . S
C1540 C206 1.358 . S
C1561 C237 1.353 . S
C1564 C339 1.443 . S
C1585 C156 1.353 . S
C1588 C370 1.443 . S
C1609 C622 1.467 . S
C1612 C401 1.584 . S
C1633 C432 1.433 . S
C1636 C714 1.342 . S
C1657 C680 1.467 . S
C1660 C436 1.584 . S
C1681 C467 1.433 . S
C1684 C683 1.342 . S
C1705 C392 1.328 . S
C1708 C525 1.412 . S
C1729 C423 1.336 . S
C1732 C556 1.425 . S
C1753 C560 1.412 . S
C1756 C435 1.328 . S
C1777 C466 1.336 . S
C1780 C591 1.425 . S
C1801 C516 1.206 . S
C1804 C621 1.308 . S
C1825 C671 1.308 . S
C1828 C559 1.206 . S
C1849 C684 1.438 . S
C1852 C590 1.348 . S
C1873 C715 1.438 . S
C1876 C547 1.348 . S
C1897 C30 1.324 . S
C1900 C343 1.304 . S
C1921 C277 1.335 . S
C1924 C41 1.357 . S
C1945 C72 1.324 . S
C1948 C312 1.304 1_545 S
C1969 C103 1.357 . S
C1972 C308 1.335 1_565 S
C1993 C64 1.285 . S
C1996 C154 1.306 . S
C2017 C95 1.261 1_556 S
C2020 C185 1.284 . S
C2041 C29 1.285 . S
C2044 C196 1.306 . S
C2065 C227 1.284 . S
C2068 C33 1.261 1_554 S
C2089 C219 1.304 . S
C2092 C278 1.325 . S
C2113 C309 1.325 . S
C2116 C184 1.304 1_655 S
C2137 C153 1.308 . S
C2140 C320 1.330 . S
C2161 C351 1.330 . S
C2164 C188 1.308 1_455 S
C2185 C742 1.317 . S
C2188 C382 1.340 . S
C2209 C640 1.135 . S
C2212 C413 1.148 . S
C2233 C711 1.317 1_565 S
C2236 C464 1.340 . S
C2257 C652 1.135 1_545 S
C2260 C495 1.148 . S
C2281 C506 1.345 . S
C2284 C463 1.324 . S
C2305 C537 1.330 . S
C2308 C494 1.309 1_554 S
C2329 C588 1.345 . S
C2332 C374 1.324 . S
C2353 C619 1.330 . S
C2356 C405 1.309 1_556 S
C2377 C618 1.354 . S
C2380 C639 1.297 . S
C2401 C529 1.354 1_455 S
C2404 C651 1.297 . S
C2425 C498 1.273 . S
C2428 C712 1.294 . S
C2449 C587 1.273 1_655 S
C2452 C743 1.294 . S
C2473 C701 1.603 . S
C2476 C0 1.610 . S
C2497 C661 1.625 . S
C2500 C50 1.583 . S
C2521 C81 1.610 . S
C2524 C732 1.603 . S
C2545 C650 1.625 . S
C2548 C112 1.583 . S
C2569 C124 1.583 . S
C2572 C403 1.575 . S
C2593 C372 1.649 . S
C2596 C155 1.660 . S
C2617 C205 1.583 . S
C2620 C484 1.575 . S
C2641 C236 1.660 . S
C2644 C453 1.649 . S
C2665 C577 1.620 . S
C2668 C248 1.626 . S
C2689 C496 1.620 . S
C2692 C279 1.626 . S
C2713 C329 1.647 . S
C2716 C527 1.639 . S
C2737 C360 1.647 . S
C2740 C608 1.639 . S
C2761 C391 1.681 . S
C2764 C310 1.671 . S
C2785 C422 1.617 . S
C2788 C298 1.608 . S
C2809 C341 1.671 . S
C2812 C434 1.681 . S
C2833 C267 1.608 . S
C2836 C465 1.617 . S
C2857 C515 1.649 . S
C2860 C31 1.645 . S
C2881 C546 1.613 . S
C2884 C19 1.604 . S
C2905 C558 1.649 . S
C2908 C93 1.645 . S
C2929 C589 1.613 . S
C2932 C62 1.604 . S
C2953 C630 1.607 . S
C2956 C186 1.538 . S
C2977 C681 1.607 . S
C2980 C143 1.538 . S
C3001 C682 1.657 . S
C3004 C174 1.646 . S
C3025 C217 1.646 . S
C3028 C713 1.657 . S
