
###############################################################################
#
# This file contains modified crystal structure data generated from the
# MOF subset of the Cambridge Structural Database (CSD) v542 
# hosted by the Cambridge Crystallographic Data Centre (CCDC).
#
# This work is licensed under the Creative Commons
# Attribution-NonCommercial-ShareAlike 4.0 International License.
# To view a copy of this license, visit
# http://creativecommons.org/licenses/by-nc-sa/4.0/
# or send a letter to
# Creative Commons, PO Box 1866, Mountain View, CA 94042, USA.
#
# CIF created using the CSD Python API on 22 February 2021
# The structure has been converted into the P1 space group
# The structure has a 3D framework
# The original CSD entry ABAVIJ is in the monoclinic crystal system
# The framework has been calculated to contain at least 10.0% void space
# The void calculation uses a probe of radius 1.32A, grid spacing 0.4
#
###############################################################################

data_ABAVIJ
_chemical_formula_moiety         '(C96 H64 Co5 N15 O32)n'
_symmetry_cell_setting           triclinic
_symmetry_space_group_name_H-M   'P 1'
_symmetry_Int_Tables_number      1
_space_group_name_Hall           'P 1'
loop_
_symmetry_equiv_pos_site_id
_symmetry_equiv_pos_as_xyz
1 x,y,z
_cell_length_a                   9.8064(9)
_cell_length_b                   26.165(2)
_cell_length_c                   10.6685(9)
_cell_angle_alpha                90
_cell_angle_beta                 105.267(2)
_cell_angle_gamma                90
_cell_volume                     2640.77
loop_
_atom_site_label
_atom_site_type_symbol
_atom_site_fract_x
_atom_site_fract_y
_atom_site_fract_z
Co7 Co 0.00198(8) 0.37559(3) 0.38012(7)
C13 C 0.6339(6) 0.18715(17) 0.1285(5)
H9 H 0.6480 0.1542 0.1669
C14 C 0.6769(6) 0.22961(17) 0.2062(5)
H10 H 0.7208 0.2256 0.2963
C15 C 0.6557(6) 0.27809(19) 0.1519(5)
C16 C 0.5908(6) 0.28209(17) 0.0220(5)
C18 C 0.7057(6) 0.3253(2) 0.2333(6)
O5 O 0.6178(4) 0.35711(16) 0.2512(4)
O6 O 0.8386(5) 0.32906(15) 0.2730(4)
C20 C 0.9248(5) 0.03379(16) 0.2448(5)
H14 H 0.9530 0.0663 0.2822
C21 C 0.8444(6) 0.0300(2) 0.1162(5)
C24 C 0.7954(7) 0.0761(2) 0.0323(6)
O7 O 0.8885(4) 0.10789(15) 0.0223(4)
O9 O 0.3875(4) 0.10340(14) 0.0088(4)
Co6 Co 0.49908(8) 0.37396(3) 0.38395(7)
Co1 Co 0.50198(8) 0.12441(3) 0.88012(7)
N1 N 0.4291(5) 0.05854(17) 0.7647(5)
C1 C 0.2953(5) 0.04348(16) 0.7353(5)
H1 H 0.2299 0.0629 0.7673
C2 C 0.2461(6) 0.00071(17) 0.6602(5)
C5 C 0.5210(6) 0.03019(16) 0.7206(5)
H4 H 0.6173 0.0404 0.7420
N2 N 0.5675(5) 0.30587(16) 0.4913(5)
C7 C 0.4743(5) 0.27361(17) 0.5210(5)
H5 H 0.3764 0.2811 0.4907
C8 C 0.5150(5) 0.22986(17) 0.5940(5)
H6 H 0.4460 0.2076 0.6119
C9 C 0.6566(6) 0.21895(19) 0.6404(5)
C10 C 0.7555(5) 0.25164(16) 0.6083(5)
H7 H 0.8540 0.2447 0.6369
C11 C 0.7051(5) 0.29449(16) 0.5334(5)
H8 H 0.7715 0.3168 0.5110
C12 C 0.7078(6) 0.1730(2) 0.7261(5)
O3 O 0.6181(5) 0.14293(16) 0.7494(4)
O4 O 0.8398(5) 0.16837(14) 0.7672(4)
N3 N 0.5722(5) 0.19111(17) 0.9993(5)
H11 H 0.5713 0.3148 0.9827
C17 C 0.5539(6) 0.23871(16) 0.9489(5)
H12 H 0.5134 0.2423 0.8581
O8 O 0.6658(5) 0.07824(15) 0.9854(4)
O10 O 0.3386(5) 0.17094(15) 0.7730(4)
Co5 Co 0.99908(8) 0.12604(3) 0.88395(7)
N4 N 0.9328(5) 0.94219(16) 0.2705(4)
C19 C 0.9633(5) 0.98958(17) 0.3179(5)
C22 C 0.8092(5) 0.98077(16) 0.0665(5)
C23 C 0.8580(6) 0.93868(17) 0.1444(5)
H16 H 0.8380 0.9056 0.1074
Co8 Co 0.99908(8) 0.87396(3) 0.38395(7)
H2 H 0.1489 0.9917 0.6398
C3 C 0.3417(6) 0.97115(19) 0.6152(5)
C4 C 0.4820(5) 0.98661(17) 0.6451(5)
H3 H 0.5498 0.9678 0.6146
C6 C 0.2921(7) 0.9239(2) 0.5335(5)
O1 O 0.1617(5) 0.91594(15) 0.5032(4)
O2 O 0.3875(4) 0.89660(14) 0.5088(4)
H15 H 0.7523 0.9763 0.9802
N5 N 0.0675(5) 0.80587(16) 0.4913(5)
O12 O 0.1178(4) 0.85711(16) 0.2512(4)
Co3 Co 0.50198(8) 0.87559(3) 0.38012(7)
O11 O 0.8398(5) 0.83163(14) 0.2672(4)
O13 O 0.8885(4) 0.89211(15) 0.5223(4)
Co7_2 Co 0.00198(8) 0.62441(3) 0.88012(7)
H2_2 H 0.1489 0.0083 0.1398
C3_2 C 0.3417(6) 0.02885(19) 0.1152(5)
C4_2 C 0.4820(5) 0.01339(17) 0.1451(5)
H3_2 H 0.5498 0.0322 0.1146
C6_2 C 0.2921(7) 0.0761(2) 0.0335(5)
O1_2 O 0.1617(5) 0.08406(15) 0.0032(4)
N4_2 N 0.9328(5) 0.05781(16) 0.7705(4)
C19_2 C 0.9633(5) 0.01042(17) 0.8179(5)
C22_2 C 0.8092(5) 0.01923(16) 0.5665(5)
H15_2 H 0.7523 0.0237 0.4802
C23_2 C 0.8580(6) 0.06132(17) 0.6444(5)
H16_2 H 0.8380 0.0944 0.6074
N5_2 N 0.0675(5) 0.19413(16) 0.9913(5)
O12_2 O 0.1178(4) 0.14289(16) 0.7512(4)
N1_2 N 0.4291(5) 0.94146(17) 0.2647(5)
C1_2 C 0.2953(5) 0.95652(16) 0.2353(5)
H1_2 H 0.2299 0.9371 0.2673
C2_2 C 0.2461(6) 0.99929(17) 0.1602(5)
C5_2 C 0.5210(6) 0.96981(16) 0.2206(5)
H4_2 H 0.6173 0.9596 0.2420
C7_2 C 0.4743(5) 0.72639(17) 0.0210(5)
C8_2 C 0.5150(5) 0.77014(17) 0.0940(5)
H6_2 H 0.4460 0.7924 0.1119
C9_2 C 0.6566(6) 0.78105(19) 0.1404(5)
C10_2 C 0.7555(5) 0.74836(16) 0.1083(5)
H7_2 H 0.8540 0.7553 0.1369
C11_2 C 0.7051(5) 0.70551(16) 0.0334(5)
H8_2 H 0.7715 0.6832 0.0110
C12_2 C 0.7078(6) 0.8270(2) 0.2261(5)
O3_2 O 0.6181(5) 0.85707(16) 0.2494(4)
N3_2 N 0.5722(5) 0.80889(17) 0.4993(5)
C13_2 C 0.6339(6) 0.81285(17) 0.6285(5)
H9_2 H 0.6480 0.8458 0.6669
C14_2 C 0.6769(6) 0.77039(17) 0.7062(5)
H10_2 H 0.7208 0.7744 0.7963
C15_2 C 0.6557(6) 0.72191(19) 0.6519(5)
C16_2 C 0.5908(6) 0.71791(17) 0.5220(5)
H11_2 H 0.5713 0.6852 0.4827
C17_2 C 0.5539(6) 0.76129(16) 0.4489(5)
H12_2 H 0.5134 0.7577 0.3581
C18_2 C 0.7057(6) 0.6747(2) 0.7333(6)
O5_2 O 0.6178(4) 0.64289(16) 0.7512(4)
O6_2 O 0.8386(5) 0.67094(15) 0.7730(4)
C20_2 C 0.9248(5) 0.96621(16) 0.7448(5)
H14_2 H 0.9530 0.9337 0.7822
C21_2 C 0.8444(6) 0.9700(2) 0.6162(5)
C24_2 C 0.7954(7) 0.9239(2) 0.5323(6)
O8_2 O 0.6658(5) 0.92176(15) 0.4854(4)
O10_2 O 0.3386(5) 0.82906(15) 0.2730(4)
Co6_2 Co 0.49908(8) 0.62604(3) 0.88395(7)
N2_2 N 0.5675(5) 0.69413(16) 0.9913(5)
H5_2 H 0.3764 0.7189 0.9907
C13_3 C 0.1339(6) 0.68715(17) 0.1285(5)
H9_3 H 0.1480 0.6542 0.1669
C14_3 C 0.1769(6) 0.72961(17) 0.2062(5)
H10_3 H 0.2208 0.7256 0.2963
C15_3 C 0.1557(6) 0.77809(19) 0.1519(5)
C16_3 C 0.0908(6) 0.78209(17) 0.0220(5)
C18_3 C 0.2057(6) 0.8253(2) 0.2333(6)
N4_3 N 0.4328(5) 0.44219(16) 0.2705(4)
C19_3 C 0.4633(5) 0.48958(17) 0.3179(5)
H13 H 0.5142 0.4931 0.4065
C20_3 C 0.4248(5) 0.53379(16) 0.2448(5)
H14_3 H 0.4530 0.5663 0.2822
C21_3 C 0.3444(6) 0.5300(2) 0.1162(5)
C22_3 C 0.3092(5) 0.48077(16) 0.0665(5)
C23_3 C 0.3580(6) 0.43868(17) 0.1444(5)
H16_3 H 0.3380 0.4056 0.1074
C24_3 C 0.2954(7) 0.5761(2) 0.0323(6)
O7_2 O 0.3885(4) 0.60789(15) 0.0223(4)
H3_3 H 0.0498 0.4678 0.6146
C5_3 C 0.0210(6) 0.53019(16) 0.7206(5)
H4_3 H 0.1173 0.5404 0.7420
C8_3 C 0.0150(5) 0.72986(17) 0.5940(5)
C9_3 C 0.1566(6) 0.71895(19) 0.6404(5)
C10_3 C 0.2555(5) 0.75164(16) 0.6083(5)
H7_3 H 0.3540 0.7447 0.6369
C11_3 C 0.2051(5) 0.79449(16) 0.5334(5)
H8_3 H 0.2715 0.8168 0.5110
C12_3 C 0.2078(6) 0.6730(2) 0.7261(5)
O3_3 O 0.1181(5) 0.64293(16) 0.7494(4)
O4_2 O 0.3398(5) 0.66837(14) 0.7672(4)
N3_3 N 0.0722(5) 0.69111(17) 0.9993(5)
H11_3 H 0.0713 0.8148 0.9827
C17_3 C 0.0539(6) 0.73871(16) 0.9489(5)
H12_3 H 0.0134 0.7423 0.8581
H15_3 H 0.2523 0.4763 0.9802
O8_3 O 0.1658(5) 0.57824(15) 0.9854(4)
O9_2 O 0.8875(4) 0.60340(14) 0.0088(4)
N1_3 N 0.9291(5) 0.55854(17) 0.7647(5)
C1_3 C 0.7953(5) 0.54348(16) 0.7353(5)
H1_3 H 0.7299 0.5629 0.7673
C2_3 C 0.7461(6) 0.50071(17) 0.6602(5)
H2_3 H 0.6489 0.4917 0.6398
C3_3 C 0.8417(6) 0.47115(19) 0.6152(5)
C4_3 C 0.9820(5) 0.48661(17) 0.6451(5)
C6_3 C 0.7921(7) 0.4239(2) 0.5335(5)
O1_3 O 0.6617(5) 0.41594(15) 0.5032(4)
O2_2 O 0.8875(4) 0.39660(14) 0.5088(4)
C7_3 C 0.9743(5) 0.77361(17) 0.5210(5)
H5_3 H 0.8764 0.7811 0.4907
H6_3 H 0.9460 0.7076 0.6119
O11_2 O 0.3398(5) 0.33163(14) 0.2672(4)
O13_2 O 0.3885(4) 0.39211(15) 0.5223(4)
H3_4 H 0.0498 0.5322 0.1146
C5_4 C 0.0210(6) 0.46981(16) 0.2206(5)
H4_4 H 0.1173 0.4596 0.2420
C8_4 C 0.0150(5) 0.27014(17) 0.0940(5)
C9_4 C 0.1566(6) 0.28105(19) 0.1404(5)
C10_4 C 0.2555(5) 0.24836(16) 0.1083(5)
H7_4 H 0.3540 0.2553 0.1369
C11_4 C 0.2051(5) 0.20551(16) 0.0334(5)
H8_4 H 0.2715 0.1832 0.0110
C12_4 C 0.2078(6) 0.3270(2) 0.2261(5)
O3_4 O 0.1181(5) 0.35707(16) 0.2494(4)
N3_4 N 0.0722(5) 0.30889(17) 0.4993(5)
C13_4 C 0.1339(6) 0.31285(17) 0.6285(5)
H9_4 H 0.1480 0.3458 0.6669
C14_4 C 0.1769(6) 0.27039(17) 0.7062(5)
H10_4 H 0.2208 0.2744 0.7963
C15_4 C 0.1557(6) 0.22191(19) 0.6519(5)
C16_4 C 0.0908(6) 0.21791(17) 0.5220(5)
H11_4 H 0.0713 0.1852 0.4827
C17_4 C 0.0539(6) 0.26129(16) 0.4489(5)
H12_4 H 0.0134 0.2577 0.3581
C18_4 C 0.2057(6) 0.1747(2) 0.7333(6)
N4_4 N 0.4328(5) 0.55781(16) 0.7705(4)
C19_4 C 0.4633(5) 0.51042(17) 0.8179(5)
H13_2 H 0.5142 0.5069 0.9065
C20_4 C 0.4248(5) 0.46621(16) 0.7448(5)
H14_4 H 0.4530 0.4337 0.7822
C21_4 C 0.3444(6) 0.4700(2) 0.6162(5)
C22_4 C 0.3092(5) 0.51923(16) 0.5665(5)
H15_4 H 0.2523 0.5237 0.4802
C23_4 C 0.3580(6) 0.56132(17) 0.6444(5)
H16_4 H 0.3380 0.5944 0.6074
C24_4 C 0.2954(7) 0.4239(2) 0.5323(6)
O8_4 O 0.1658(5) 0.42176(15) 0.4854(4)
N1_4 N 0.9291(5) 0.44146(17) 0.2647(5)
C1_4 C 0.7953(5) 0.45652(16) 0.2353(5)
H1_4 H 0.7299 0.4371 0.2673
C2_4 C 0.7461(6) 0.49929(17) 0.1602(5)
H2_4 H 0.6489 0.5083 0.1398
C3_4 C 0.8417(6) 0.52885(19) 0.1152(5)
C4_4 C 0.9820(5) 0.51339(17) 0.1451(5)
C6_4 C 0.7921(7) 0.5761(2) 0.0335(5)
O1_4 O 0.6617(5) 0.58406(15) 0.0032(4)
C7_4 C 0.9743(5) 0.22639(17) 0.0210(5)
H6_4 H 0.9460 0.2924 0.1119
H5_4 H 0.8764 0.2189 0.9907
H13_3 H 0.0142 0.9931 0.4065
H13_4 H 0.0142 0.0069 0.9065
loop_
_geom_bond_atom_site_label_1
_geom_bond_atom_site_label_2
_geom_bond_site_symmetry_1
_geom_bond_site_symmetry_2
H9 C13 1_555 1_555
C14 C13 1_555 1_555
H10 C14 1_555 1_555
C15 C14 1_555 1_555
C16 C15 1_555 1_555
C18 C15 1_555 1_555
O5 C18 1_555 1_555
O6 C18 1_555 1_555
H14 C20 1_555 1_555
C21 C20 1_555 1_555
C24 C21 1_555 1_555
O7 C24 1_555 1_555
Co6 O5 1_555 1_555
Co1 N1 1_555 1_555
N1 C1 1_555 1_555
C1 H1 1_555 1_555
C2 C1 1_555 1_555
C5 N1 1_555 1_555
H4 C5 1_555 1_555
N2 C7 1_555 1_555
C7 H5 1_555 1_555
C8 C7 1_555 1_555
H6 C8 1_555 1_555
C9 C8 1_555 1_555
C10 C9 1_555 1_555
H7 C10 1_555 1_555
C11 N2 1_555 1_555
H8 C11 1_555 1_555
C12 C9 1_555 1_555
O3 Co1 1_555 1_555
O4 C12 1_555 1_555
N3 Co1 1_555 1_555
C17 N3 1_555 1_555
H12 C17 1_555 1_555
O8 Co1 1_555 1_555
O10 Co1 1_555 1_555
Co6 N2 1_555 1_555
Co5 O4 1_555 1_555
C10 C11 1_555 1_555
C12 O3 1_555 1_555
N4 C19 1_555 1_555
C23 N4 1_555 1_555
H16 C23 1_555 1_555
Co8 N4 1_555 1_555
C22 C23 1_555 1_555
C4 C3 1_555 1_555
H3 C4 1_555 1_555
C6 C3 1_555 1_555
O1 C6 1_555 1_555
O2 C6 1_555 1_555
Co3 O2 1_555 1_555
O11 Co8 1_555 1_555
O13 Co8 1_555 1_555
C4_2 C3_2 1_555 1_555
H3_2 C4_2 1_555 1_555
C6_2 C3_2 1_555 1_555
O1_2 C6_2 1_555 1_555
O9 C6_2 1_555 1_555
N4_2 C19_2 1_555 1_555
H15_2 C22_2 1_555 1_555
C23_2 N4_2 1_555 1_555
H16_2 C23_2 1_555 1_555
Co5 N4_2 1_555 1_555
C22_2 C23_2 1_555 1_555
Co3 N1_2 1_555 1_555
N1_2 C1_2 1_555 1_555
C1_2 H1_2 1_555 1_555
C2_2 C1_2 1_555 1_555
C5_2 N1_2 1_555 1_555
H4_2 C5_2 1_555 1_555
C8_2 C7_2 1_555 1_555
H6_2 C8_2 1_555 1_555
C9_2 C8_2 1_555 1_555
C10_2 C9_2 1_555 1_555
H7_2 C10_2 1_555 1_555
H8_2 C11_2 1_555 1_555
C12_2 C9_2 1_555 1_555
O3_2 Co3 1_555 1_555
O11 C12_2 1_555 1_555
N3_2 Co3 1_555 1_555
C13_2 N3_2 1_555 1_555
H9_2 C13_2 1_555 1_555
C14_2 C13_2 1_555 1_555
H10_2 C14_2 1_555 1_555
C15_2 C14_2 1_555 1_555
C16_2 C15_2 1_555 1_555
H11_2 C16_2 1_555 1_555
C17_2 N3_2 1_555 1_555
H12_2 C17_2 1_555 1_555
C18_2 C15_2 1_555 1_555
O5_2 C18_2 1_555 1_555
O6_2 C18_2 1_555 1_555
H14_2 C20_2 1_555 1_555
C21_2 C20_2 1_555 1_555
C24_2 C21_2 1_555 1_555
O13 C24_2 1_555 1_555
O8_2 Co3 1_555 1_555
O10_2 Co3 1_555 1_555
Co6_2 O5_2 1_555 1_555
C10_2 C11_2 1_555 1_555
C12_2 O3_2 1_555 1_555
C16_2 C17_2 1_555 1_555
C24_2 O8_2 1_555 1_555
Co6_2 N2_2 1_555 1_555
H9_3 C13_3 1_555 1_555
C14_3 C13_3 1_555 1_555
H10_3 C14_3 1_555 1_555
C15_3 C14_3 1_555 1_555
C16_3 C15_3 1_555 1_555
C18_3 C15_3 1_555 1_555
O12 C18_3 1_555 1_555
O10_2 C18_3 1_555 1_555
N4_3 C19_3 1_555 1_555
C19_3 H13 1_555 1_555
C20_3 C19_3 1_555 1_555
H14_3 C20_3 1_555 1_555
C21_3 C20_3 1_555 1_555
C22_3 C21_3 1_555 1_555
C23_3 N4_3 1_555 1_555
H16_3 C23_3 1_555 1_555
C24_3 C21_3 1_555 1_555
O7_2 C24_3 1_555 1_555
Co6 N4_3 1_555 1_555
C22_3 C23_3 1_555 1_555
H4_3 C5_3 1_555 1_555
C9_3 C8_3 1_555 1_555
C10_3 C9_3 1_555 1_555
H7_3 C10_3 1_555 1_555
C11_3 N5 1_555 1_555
H8_3 C11_3 1_555 1_555
C12_3 C9_3 1_555 1_555
O3_3 Co7_2 1_555 1_555
O4_2 C12_3 1_555 1_555
N3_3 Co7_2 1_555 1_555
C17_3 N3_3 1_555 1_555
H12_3 C17_3 1_555 1_555
O8_3 Co7_2 1_555 1_555
Co6_2 O4_2 1_555 1_555
C10_3 C11_3 1_555 1_555
C12_3 O3_3 1_555 1_555
Co6 O1_3 1_555 1_555
N1_3 C1_3 1_555 1_555
C1_3 H1_3 1_555 1_555
C2_3 C1_3 1_555 1_555
H2_3 C2_3 1_555 1_555
C3_3 C2_3 1_555 1_555
C4_3 C3_3 1_555 1_555
C6_3 C3_3 1_555 1_555
O1_3 C6_3 1_555 1_555
O2_2 C6_3 1_555 1_555
C7_3 H5_3 1_555 1_555
O11_2 Co6 1_555 1_555
O13_2 Co6 1_555 1_555
H4_4 C5_4 1_555 1_555
C9_4 C8_4 1_555 1_555
C10_4 C9_4 1_555 1_555
H7_4 C10_4 1_555 1_555
H8_4 C11_4 1_555 1_555
C12_4 C9_4 1_555 1_555
O3_4 Co7 1_555 1_555
O11_2 C12_4 1_555 1_555
N3_4 Co7 1_555 1_555
C13_4 N3_4 1_555 1_555
H9_4 C13_4 1_555 1_555
C14_4 C13_4 1_555 1_555
H10_4 C14_4 1_555 1_555
C15_4 C14_4 1_555 1_555
C16_4 C15_4 1_555 1_555
H11_4 C16_4 1_555 1_555
C17_4 N3_4 1_555 1_555
H12_4 C17_4 1_555 1_555
C18_4 C15_4 1_555 1_555
O12_2 C18_4 1_555 1_555
O10 C18_4 1_555 1_555
N4_4 C19_4 1_555 1_555
C19_4 H13_2 1_555 1_555
C20_4 C19_4 1_555 1_555
H14_4 C20_4 1_555 1_555
C21_4 C20_4 1_555 1_555
C22_4 C21_4 1_555 1_555
H15_4 C22_4 1_555 1_555
C23_4 N4_4 1_555 1_555
H16_4 C23_4 1_555 1_555
C24_4 C21_4 1_555 1_555
O13_2 C24_4 1_555 1_555
O8_4 Co7 1_555 1_555
Co6_2 N4_4 1_555 1_555
C10_4 C11_4 1_555 1_555
C12_4 O3_4 1_555 1_555
C16_4 C17_4 1_555 1_555
C22_4 C23_4 1_555 1_555
C24_4 O8_4 1_555 1_555
N1_4 C1_4 1_555 1_555
C1_4 H1_4 1_555 1_555
C2_4 C1_4 1_555 1_555
H2_4 C2_4 1_555 1_555
C3_4 C2_4 1_555 1_555
C4_4 C3_4 1_555 1_555
C6_4 C3_4 1_555 1_555
O1_4 C6_4 1_555 1_555
O9_2 C6_4 1_555 1_555

#END
