data_calc0
_audit_creation_date              2012-12-19
_audit_creation_method            'GDIS'
_symmetry_space_group_name_H-M    'P1'
_symmetry_Int_Tables_number       1
_symmetry_cell_setting            triclinic
loop_
_symmetry_equiv_pos_as_xyz
  x,y,z
_cell_length_a                    20.8663
_cell_length_b                    20.8663
_cell_length_c                    20.8663
_cell_angle_alpha                 90.0000
_cell_angle_beta                  90.0000
_cell_angle_gamma                 90.0000
loop_
_atom_site_label
_atom_site_type_symbol
_atom_site_fract_x
_atom_site_fract_y
_atom_site_fract_z
_atom_site_U_iso_or_equiv
_atom_site_adp_type
_atom_site_occupancy
Zr1    Zr    0.12044   0.00000   0.00000   0.00000  Uiso   1.00
Zr2    Zr    0.62044   0.50000   0.00000   0.00000  Uiso   1.00
Zr3    Zr    0.62044   0.00000   0.50000   0.00000  Uiso   1.00
Zr4    Zr    0.12044   0.50000   0.50000   0.00000  Uiso   1.00
Zr5    Zr    0.87956   0.00000   0.00000   0.00000  Uiso   1.00
Zr6    Zr    0.37956   0.50000   0.00000   0.00000  Uiso   1.00
Zr7    Zr    0.37956   0.00000   0.50000   0.00000  Uiso   1.00
Zr8    Zr    0.87956   0.50000   0.50000   0.00000  Uiso   1.00
Zr9    Zr    1.00000   0.12044   0.00000   0.00000  Uiso   1.00
Zr10   Zr    0.50000   0.62044   0.00000   0.00000  Uiso   1.00
Zr11   Zr    0.50000   0.12044   0.50000   0.00000  Uiso   1.00
Zr12   Zr    1.00000   0.62044   0.50000   0.00000  Uiso   1.00
Zr13   Zr    0.50000   0.37956   0.00000   0.00000  Uiso   1.00
Zr14   Zr    1.00000   0.87956   0.00000   0.00000  Uiso   1.00
Zr15   Zr    1.00000   0.37956   0.50000   0.00000  Uiso   1.00
Zr16   Zr    0.50000   0.87956   0.50000   0.00000  Uiso   1.00
Zr17   Zr    1.00000   0.00000   0.12044   0.00000  Uiso   1.00
Zr18   Zr    0.50000   0.50000   0.12044   0.00000  Uiso   1.00
Zr19   Zr    0.50000   0.00000   0.62044   0.00000  Uiso   1.00
Zr20   Zr    1.00000   0.50000   0.62044   0.00000  Uiso   1.00
Zr21   Zr    0.50000   0.00000   0.37956   0.00000  Uiso   1.00
Zr22   Zr    1.00000   0.50000   0.37956   0.00000  Uiso   1.00
Zr23   Zr    1.00000   0.00000   0.87956   0.00000  Uiso   1.00
Zr24   Zr    0.50000   0.50000   0.87956   0.00000  Uiso   1.00
C25    C     0.76765   0.18528   0.49263   0.00000  Uiso   1.00
C26    C     0.26765   0.68528   0.49263   0.00000  Uiso   1.00
C27    C     0.26765   0.18528   0.99263   0.00000  Uiso   1.00
C28    C     0.76765   0.68528   0.99263   0.00000  Uiso   1.00
C29    C     0.73235   0.31472   0.49263   0.00000  Uiso   1.00
C30    C     0.23235   0.81472   0.49263   0.00000  Uiso   1.00
C31    C     0.23235   0.31472   0.99263   0.00000  Uiso   1.00
C32    C     0.73235   0.81472   0.99263   0.00000  Uiso   1.00
C33    C     0.73234   0.18528   0.00736   0.00000  Uiso   1.00
C34    C     0.23234   0.68528   0.00736   0.00000  Uiso   1.00
C35    C     0.23234   0.18528   0.50736   0.00000  Uiso   1.00
C36    C     0.73234   0.68528   0.50736   0.00000  Uiso   1.00
C37    C     0.76765   0.31471   0.00736   0.00000  Uiso   1.00
C38    C     0.26765   0.81471   0.00736   0.00000  Uiso   1.00
C39    C     0.26765   0.31471   0.50736   0.00000  Uiso   1.00
C40    C     0.76765   0.81471   0.50736   0.00000  Uiso   1.00
C41    C     0.99263   0.26765   0.18528   0.00000  Uiso   1.00
C42    C     0.49263   0.76765   0.18528   0.00000  Uiso   1.00
C43    C     0.49263   0.26765   0.68528   0.00000  Uiso   1.00
C44    C     0.99263   0.76765   0.68528   0.00000  Uiso   1.00
C45    C     0.99263   0.23234   0.31471   0.00000  Uiso   1.00
C46    C     0.49263   0.73234   0.31471   0.00000  Uiso   1.00
C47    C     0.49263   0.23234   0.81471   0.00000  Uiso   1.00
C48    C     0.99263   0.73234   0.81471   0.00000  Uiso   1.00
C49    C     0.50737   0.23235   0.18528   0.00000  Uiso   1.00
C50    C     0.00737   0.73235   0.18528   0.00000  Uiso   1.00
C51    C     0.00737   0.23235   0.68528   0.00000  Uiso   1.00
C52    C     0.50737   0.73235   0.68528   0.00000  Uiso   1.00
C53    C     0.50736   0.26765   0.31471   0.00000  Uiso   1.00
C54    C     0.00736   0.76765   0.31471   0.00000  Uiso   1.00
C55    C     0.00736   0.26765   0.81471   0.00000  Uiso   1.00
C56    C     0.50736   0.76765   0.81471   0.00000  Uiso   1.00
C57    C     0.68528   0.49263   0.26765   0.00000  Uiso   1.00
C58    C     0.18528   0.99263   0.26765   0.00000  Uiso   1.00
C59    C     0.18528   0.49263   0.76765   0.00000  Uiso   1.00
C60    C     0.68528   0.99263   0.76765   0.00000  Uiso   1.00
C61    C     0.81471   0.49263   0.23234   0.00000  Uiso   1.00
C62    C     0.31471   0.99263   0.23234   0.00000  Uiso   1.00
C63    C     0.31471   0.49263   0.73234   0.00000  Uiso   1.00
C64    C     0.81471   0.99263   0.73234   0.00000  Uiso   1.00
C65    C     0.68528   0.00736   0.23234   0.00000  Uiso   1.00
C66    C     0.18528   0.50736   0.23234   0.00000  Uiso   1.00
C67    C     0.18528   0.00736   0.73234   0.00000  Uiso   1.00
C68    C     0.68528   0.50736   0.73234   0.00000  Uiso   1.00
C69    C     0.81472   0.00737   0.26765   0.00000  Uiso   1.00
C70    C     0.31472   0.50737   0.26765   0.00000  Uiso   1.00
C71    C     0.31472   0.00737   0.76765   0.00000  Uiso   1.00
C72    C     0.81472   0.50737   0.76765   0.00000  Uiso   1.00
C73    C     0.68528   0.26765   0.49263   0.00000  Uiso   1.00
C74    C     0.18528   0.76765   0.49263   0.00000  Uiso   1.00
C75    C     0.18528   0.26765   0.99263   0.00000  Uiso   1.00
C76    C     0.68528   0.76765   0.99263   0.00000  Uiso   1.00
C77    C     0.81472   0.23235   0.49263   0.00000  Uiso   1.00
C78    C     0.31472   0.73235   0.49263   0.00000  Uiso   1.00
C79    C     0.31472   0.23235   0.99263   0.00000  Uiso   1.00
C80    C     0.81472   0.73235   0.99263   0.00000  Uiso   1.00
C81    C     0.68528   0.23234   0.00736   0.00000  Uiso   1.00
C82    C     0.18528   0.73234   0.00736   0.00000  Uiso   1.00
C83    C     0.18528   0.23234   0.50736   0.00000  Uiso   1.00
C84    C     0.68528   0.73234   0.50736   0.00000  Uiso   1.00
C85    C     0.81471   0.26765   0.00736   0.00000  Uiso   1.00
C86    C     0.31471   0.76765   0.00736   0.00000  Uiso   1.00
C87    C     0.31471   0.26765   0.50736   0.00000  Uiso   1.00
C88    C     0.81471   0.76765   0.50736   0.00000  Uiso   1.00
C89    C     0.76765   0.49263   0.18528   0.00000  Uiso   1.00
C90    C     0.26765   0.99263   0.18528   0.00000  Uiso   1.00
C91    C     0.26765   0.49263   0.68528   0.00000  Uiso   1.00
C92    C     0.76765   0.99263   0.68528   0.00000  Uiso   1.00
C93    C     0.73234   0.49263   0.31471   0.00000  Uiso   1.00
C94    C     0.23234   0.99263   0.31471   0.00000  Uiso   1.00
C95    C     0.23234   0.49263   0.81471   0.00000  Uiso   1.00
C96    C     0.73234   0.99263   0.81471   0.00000  Uiso   1.00
C97    C     0.73235   0.00737   0.18528   0.00000  Uiso   1.00
C98    C     0.23235   0.50737   0.18528   0.00000  Uiso   1.00
C99    C     0.23235   0.00737   0.68528   0.00000  Uiso   1.00
C100   C     0.73235   0.50737   0.68528   0.00000  Uiso   1.00
C101   C     0.76765   0.00736   0.31471   0.00000  Uiso   1.00
C102   C     0.26765   0.50736   0.31471   0.00000  Uiso   1.00
C103   C     0.26765   0.00736   0.81471   0.00000  Uiso   1.00
C104   C     0.76765   0.50736   0.81471   0.00000  Uiso   1.00
C105   C     0.99263   0.18528   0.26765   0.00000  Uiso   1.00
C106   C     0.49263   0.68528   0.26765   0.00000  Uiso   1.00
C107   C     0.49263   0.18528   0.76765   0.00000  Uiso   1.00
C108   C     0.99263   0.68528   0.76765   0.00000  Uiso   1.00
C109   C     0.99263   0.31472   0.23235   0.00000  Uiso   1.00
C110   C     0.49263   0.81472   0.23235   0.00000  Uiso   1.00
C111   C     0.49263   0.31472   0.73235   0.00000  Uiso   1.00
C112   C     0.99263   0.81472   0.73235   0.00000  Uiso   1.00
C113   C     0.50736   0.18528   0.23234   0.00000  Uiso   1.00
C114   C     0.00736   0.68528   0.23234   0.00000  Uiso   1.00
C115   C     0.00736   0.18528   0.73234   0.00000  Uiso   1.00
C116   C     0.50736   0.68528   0.73234   0.00000  Uiso   1.00
C117   C     0.50737   0.31472   0.26765   0.00000  Uiso   1.00
C118   C     0.00737   0.81472   0.26765   0.00000  Uiso   1.00
C119   C     0.00737   0.31472   0.76765   0.00000  Uiso   1.00
C120   C     0.50737   0.81472   0.76765   0.00000  Uiso   1.00
C121   C     0.70277   0.20277   0.49309   0.00000  Uiso   1.00
C122   C     0.20277   0.70277   0.49309   0.00000  Uiso   1.00
C123   C     0.20277   0.20277   0.99309   0.00000  Uiso   1.00
C124   C     0.70277   0.70277   0.99309   0.00000  Uiso   1.00
C125   C     0.79722   0.29722   0.49309   0.00000  Uiso   1.00
C126   C     0.29722   0.79722   0.49309   0.00000  Uiso   1.00
C127   C     0.29722   0.29722   0.99309   0.00000  Uiso   1.00
C128   C     0.79722   0.79722   0.99309   0.00000  Uiso   1.00
C129   C     0.79722   0.20277   0.00691   0.00000  Uiso   1.00
C130   C     0.29722   0.70277   0.00691   0.00000  Uiso   1.00
C131   C     0.29722   0.20277   0.50691   0.00000  Uiso   1.00
C132   C     0.79722   0.70277   0.50691   0.00000  Uiso   1.00
C133   C     0.70277   0.29722   0.00691   0.00000  Uiso   1.00
C134   C     0.20277   0.79722   0.00691   0.00000  Uiso   1.00
C135   C     0.20277   0.29722   0.50691   0.00000  Uiso   1.00
C136   C     0.70277   0.79722   0.50691   0.00000  Uiso   1.00
C137   C     0.99309   0.20277   0.20277   0.00000  Uiso   1.00
C138   C     0.49309   0.70277   0.20277   0.00000  Uiso   1.00
C139   C     0.49309   0.20277   0.70277   0.00000  Uiso   1.00
C140   C     0.99309   0.70277   0.70277   0.00000  Uiso   1.00
C141   C     0.99309   0.29722   0.29722   0.00000  Uiso   1.00
C142   C     0.49309   0.79722   0.29722   0.00000  Uiso   1.00
C143   C     0.49309   0.29722   0.79722   0.00000  Uiso   1.00
C144   C     0.99309   0.79722   0.79722   0.00000  Uiso   1.00
C145   C     0.50691   0.29722   0.20277   0.00000  Uiso   1.00
C146   C     0.00691   0.79722   0.20277   0.00000  Uiso   1.00
C147   C     0.00691   0.29722   0.70277   0.00000  Uiso   1.00
C148   C     0.50691   0.79722   0.70277   0.00000  Uiso   1.00
C149   C     0.50691   0.20277   0.29722   0.00000  Uiso   1.00
C150   C     0.00691   0.70277   0.29722   0.00000  Uiso   1.00
C151   C     0.00691   0.20277   0.79722   0.00000  Uiso   1.00
C152   C     0.50691   0.70277   0.79722   0.00000  Uiso   1.00
C153   C     0.70277   0.49309   0.20277   0.00000  Uiso   1.00
C154   C     0.20277   0.99309   0.20277   0.00000  Uiso   1.00
C155   C     0.20277   0.49309   0.70277   0.00000  Uiso   1.00
C156   C     0.70277   0.99309   0.70277   0.00000  Uiso   1.00
C157   C     0.79722   0.49309   0.29722   0.00000  Uiso   1.00
C158   C     0.29722   0.99309   0.29722   0.00000  Uiso   1.00
C159   C     0.29722   0.49309   0.79722   0.00000  Uiso   1.00
C160   C     0.79722   0.99309   0.79722   0.00000  Uiso   1.00
C161   C     0.70277   0.00691   0.29722   0.00000  Uiso   1.00
C162   C     0.20277   0.50691   0.29722   0.00000  Uiso   1.00
C163   C     0.20277   0.00691   0.79722   0.00000  Uiso   1.00
C164   C     0.70277   0.50691   0.79722   0.00000  Uiso   1.00
C165   C     0.79722   0.00691   0.20277   0.00000  Uiso   1.00
C166   C     0.29722   0.50691   0.20277   0.00000  Uiso   1.00
C167   C     0.29722   0.00691   0.70277   0.00000  Uiso   1.00
C168   C     0.79722   0.50691   0.70277   0.00000  Uiso   1.00
C169   C     0.50454   0.15228   0.34772   0.00000  Uiso   1.00
C170   C     0.00454   0.65228   0.34772   0.00000  Uiso   1.00
C171   C     0.00454   0.15228   0.84772   0.00000  Uiso   1.00
C172   C     0.50454   0.65228   0.84772   0.00000  Uiso   1.00
C173   C     0.99546   0.34772   0.34772   0.00000  Uiso   1.00
C174   C     0.49546   0.84772   0.34772   0.00000  Uiso   1.00
C175   C     0.49546   0.34772   0.84772   0.00000  Uiso   1.00
C176   C     0.99546   0.84772   0.84772   0.00000  Uiso   1.00
C177   C     0.99546   0.15228   0.15228   0.00000  Uiso   1.00
C178   C     0.49546   0.65228   0.15228   0.00000  Uiso   1.00
C179   C     0.49546   0.15228   0.65228   0.00000  Uiso   1.00
C180   C     0.99546   0.65228   0.65228   0.00000  Uiso   1.00
C181   C     0.50454   0.34772   0.15228   0.00000  Uiso   1.00
C182   C     0.00454   0.84772   0.15228   0.00000  Uiso   1.00
C183   C     0.00454   0.34772   0.65228   0.00000  Uiso   1.00
C184   C     0.50454   0.84772   0.65228   0.00000  Uiso   1.00
C185   C     0.84772   0.00454   0.15228   0.00000  Uiso   1.00
C186   C     0.34772   0.50454   0.15228   0.00000  Uiso   1.00
C187   C     0.34772   0.00454   0.65228   0.00000  Uiso   1.00
C188   C     0.84772   0.50454   0.65228   0.00000  Uiso   1.00
C189   C     0.84772   0.49546   0.34772   0.00000  Uiso   1.00
C190   C     0.34772   0.99546   0.34772   0.00000  Uiso   1.00
C191   C     0.34772   0.49546   0.84772   0.00000  Uiso   1.00
C192   C     0.84772   0.99546   0.84772   0.00000  Uiso   1.00
C193   C     0.65228   0.49546   0.15228   0.00000  Uiso   1.00
C194   C     0.15228   0.99546   0.15228   0.00000  Uiso   1.00
C195   C     0.15228   0.49546   0.65228   0.00000  Uiso   1.00
C196   C     0.65228   0.99546   0.65228   0.00000  Uiso   1.00
C197   C     0.65228   0.00454   0.34772   0.00000  Uiso   1.00
C198   C     0.15228   0.50454   0.34772   0.00000  Uiso   1.00
C199   C     0.15228   0.00454   0.84772   0.00000  Uiso   1.00
C200   C     0.65228   0.50454   0.84772   0.00000  Uiso   1.00
C201   C     0.65228   0.34772   0.00454   0.00000  Uiso   1.00
C202   C     0.15228   0.84772   0.00454   0.00000  Uiso   1.00
C203   C     0.15228   0.34772   0.50454   0.00000  Uiso   1.00
C204   C     0.65228   0.84772   0.50454   0.00000  Uiso   1.00
C205   C     0.84772   0.34772   0.49546   0.00000  Uiso   1.00
C206   C     0.34772   0.84772   0.49546   0.00000  Uiso   1.00
C207   C     0.34772   0.34772   0.99546   0.00000  Uiso   1.00
C208   C     0.84772   0.84772   0.99546   0.00000  Uiso   1.00
C209   C     0.65228   0.15228   0.49546   0.00000  Uiso   1.00
C210   C     0.15228   0.65228   0.49546   0.00000  Uiso   1.00
C211   C     0.15228   0.15228   0.99546   0.00000  Uiso   1.00
C212   C     0.65228   0.65228   0.99546   0.00000  Uiso   1.00
C213   C     0.84772   0.15228   0.00454   0.00000  Uiso   1.00
C214   C     0.34772   0.65228   0.00454   0.00000  Uiso   1.00
C215   C     0.34772   0.15228   0.50454   0.00000  Uiso   1.00
C216   C     0.84772   0.65228   0.50454   0.00000  Uiso   1.00
H217   H     0.78021   0.13457   0.49270   0.00000  Uiso   1.00
H218   H     0.28021   0.63457   0.49270   0.00000  Uiso   1.00
H219   H     0.28021   0.13457   0.99270   0.00000  Uiso   1.00
H220   H     0.78021   0.63457   0.99270   0.00000  Uiso   1.00
H221   H     0.71980   0.36544   0.49269   0.00000  Uiso   1.00
H222   H     0.21980   0.86544   0.49269   0.00000  Uiso   1.00
H223   H     0.21980   0.36544   0.99269   0.00000  Uiso   1.00
H224   H     0.71980   0.86544   0.99269   0.00000  Uiso   1.00
H225   H     0.71980   0.13457   0.00731   0.00000  Uiso   1.00
H226   H     0.21980   0.63457   0.00731   0.00000  Uiso   1.00
H227   H     0.21980   0.13457   0.50731   0.00000  Uiso   1.00
H228   H     0.71980   0.63457   0.50731   0.00000  Uiso   1.00
H229   H     0.78021   0.36544   0.00731   0.00000  Uiso   1.00
H230   H     0.28021   0.86544   0.00731   0.00000  Uiso   1.00
H231   H     0.28021   0.36544   0.50731   0.00000  Uiso   1.00
H232   H     0.78021   0.86544   0.50731   0.00000  Uiso   1.00
H233   H     0.99269   0.28021   0.13457   0.00000  Uiso   1.00
H234   H     0.49269   0.78021   0.13457   0.00000  Uiso   1.00
H235   H     0.49269   0.28021   0.63457   0.00000  Uiso   1.00
H236   H     0.99269   0.78021   0.63457   0.00000  Uiso   1.00
H237   H     0.99269   0.21980   0.36543   0.00000  Uiso   1.00
H238   H     0.49269   0.71980   0.36543   0.00000  Uiso   1.00
H239   H     0.49269   0.21980   0.86543   0.00000  Uiso   1.00
H240   H     0.99269   0.71980   0.86543   0.00000  Uiso   1.00
H241   H     0.50731   0.21980   0.13457   0.00000  Uiso   1.00
H242   H     0.00731   0.71980   0.13457   0.00000  Uiso   1.00
H243   H     0.00731   0.21980   0.63457   0.00000  Uiso   1.00
H244   H     0.50731   0.71980   0.63457   0.00000  Uiso   1.00
H245   H     0.50731   0.28021   0.36544   0.00000  Uiso   1.00
H246   H     0.00731   0.78021   0.36544   0.00000  Uiso   1.00
H247   H     0.00731   0.28021   0.86544   0.00000  Uiso   1.00
H248   H     0.50731   0.78021   0.86544   0.00000  Uiso   1.00
H249   H     0.63457   0.49270   0.28021   0.00000  Uiso   1.00
H250   H     0.13457   0.99270   0.28021   0.00000  Uiso   1.00
H251   H     0.13457   0.49270   0.78021   0.00000  Uiso   1.00
H252   H     0.63457   0.99270   0.78021   0.00000  Uiso   1.00
H253   H     0.86544   0.49270   0.21980   0.00000  Uiso   1.00
H254   H     0.36544   0.99270   0.21980   0.00000  Uiso   1.00
H255   H     0.36544   0.49270   0.71980   0.00000  Uiso   1.00
H256   H     0.86544   0.99270   0.71980   0.00000  Uiso   1.00
H257   H     0.63457   0.00731   0.21980   0.00000  Uiso   1.00
H258   H     0.13457   0.50731   0.21980   0.00000  Uiso   1.00
H259   H     0.13457   0.00731   0.71980   0.00000  Uiso   1.00
H260   H     0.63457   0.50731   0.71980   0.00000  Uiso   1.00
H261   H     0.86543   0.00731   0.28020   0.00000  Uiso   1.00
H262   H     0.36543   0.50731   0.28020   0.00000  Uiso   1.00
H263   H     0.36543   0.00731   0.78020   0.00000  Uiso   1.00
H264   H     0.86543   0.50731   0.78020   0.00000  Uiso   1.00
H265   H     0.63457   0.28021   0.49269   0.00000  Uiso   1.00
H266   H     0.13457   0.78021   0.49269   0.00000  Uiso   1.00
H267   H     0.13457   0.28021   0.99269   0.00000  Uiso   1.00
H268   H     0.63457   0.78021   0.99269   0.00000  Uiso   1.00
H269   H     0.86543   0.21980   0.49269   0.00000  Uiso   1.00
H270   H     0.36543   0.71980   0.49269   0.00000  Uiso   1.00
H271   H     0.36543   0.21980   0.99269   0.00000  Uiso   1.00
H272   H     0.86543   0.71980   0.99269   0.00000  Uiso   1.00
H273   H     0.63457   0.21980   0.00731   0.00000  Uiso   1.00
H274   H     0.13457   0.71980   0.00731   0.00000  Uiso   1.00
H275   H     0.13457   0.21980   0.50731   0.00000  Uiso   1.00
H276   H     0.63457   0.71980   0.50731   0.00000  Uiso   1.00
H277   H     0.86544   0.28021   0.00731   0.00000  Uiso   1.00
H278   H     0.36544   0.78021   0.00731   0.00000  Uiso   1.00
H279   H     0.36544   0.28021   0.50731   0.00000  Uiso   1.00
H280   H     0.86544   0.78021   0.50731   0.00000  Uiso   1.00
H281   H     0.78021   0.49270   0.13457   0.00000  Uiso   1.00
H282   H     0.28021   0.99270   0.13457   0.00000  Uiso   1.00
H283   H     0.28021   0.49270   0.63457   0.00000  Uiso   1.00
H284   H     0.78021   0.99270   0.63457   0.00000  Uiso   1.00
H285   H     0.71980   0.49270   0.36544   0.00000  Uiso   1.00
H286   H     0.21980   0.99270   0.36544   0.00000  Uiso   1.00
H287   H     0.21980   0.49270   0.86544   0.00000  Uiso   1.00
H288   H     0.71980   0.99270   0.86544   0.00000  Uiso   1.00
H289   H     0.71980   0.00731   0.13457   0.00000  Uiso   1.00
H290   H     0.21980   0.50731   0.13457   0.00000  Uiso   1.00
H291   H     0.21980   0.00731   0.63457   0.00000  Uiso   1.00
H292   H     0.71980   0.50731   0.63457   0.00000  Uiso   1.00
H293   H     0.78021   0.00731   0.36544   0.00000  Uiso   1.00
H294   H     0.28021   0.50731   0.36544   0.00000  Uiso   1.00
H295   H     0.28021   0.00731   0.86544   0.00000  Uiso   1.00
H296   H     0.78021   0.50731   0.86544   0.00000  Uiso   1.00
H297   H     0.99269   0.13457   0.28020   0.00000  Uiso   1.00
H298   H     0.49269   0.63457   0.28020   0.00000  Uiso   1.00
H299   H     0.49269   0.13457   0.78020   0.00000  Uiso   1.00
H300   H     0.99269   0.63457   0.78020   0.00000  Uiso   1.00
H301   H     0.99269   0.36544   0.21980   0.00000  Uiso   1.00
H302   H     0.49269   0.86544   0.21980   0.00000  Uiso   1.00
H303   H     0.49269   0.36544   0.71980   0.00000  Uiso   1.00
H304   H     0.99269   0.86544   0.71980   0.00000  Uiso   1.00
H305   H     0.50731   0.13457   0.21980   0.00000  Uiso   1.00
H306   H     0.00731   0.63457   0.21980   0.00000  Uiso   1.00
H307   H     0.00731   0.13457   0.71980   0.00000  Uiso   1.00
H308   H     0.50731   0.63457   0.71980   0.00000  Uiso   1.00
H309   H     0.50731   0.36544   0.28021   0.00000  Uiso   1.00
H310   H     0.00731   0.86544   0.28021   0.00000  Uiso   1.00
H311   H     0.00731   0.36544   0.78021   0.00000  Uiso   1.00
H312   H     0.50731   0.86544   0.78021   0.00000  Uiso   1.00
H313   H     0.09442   0.40559   0.40559   0.00000  Uiso   1.00
H314   H     0.59442   0.90559   0.40559   0.00000  Uiso   1.00
H315   H     0.59442   0.40559   0.90559   0.00000  Uiso   1.00
H316   H     0.09442   0.90559   0.90559   0.00000  Uiso   1.00
H317   H     0.40558   0.09442   0.40559   0.00000  Uiso   1.00
H318   H     0.90558   0.59442   0.40559   0.00000  Uiso   1.00
H319   H     0.90558   0.09442   0.90559   0.00000  Uiso   1.00
H320   H     0.40558   0.59442   0.90559   0.00000  Uiso   1.00
H321   H     0.40558   0.40559   0.09442   0.00000  Uiso   1.00
H322   H     0.90558   0.90559   0.09442   0.00000  Uiso   1.00
H323   H     0.90558   0.40559   0.59442   0.00000  Uiso   1.00
H324   H     0.40558   0.90559   0.59442   0.00000  Uiso   1.00
H325   H     0.09442   0.09442   0.09442   0.00000  Uiso   1.00
H326   H     0.59442   0.59442   0.09442   0.00000  Uiso   1.00
H327   H     0.59442   0.09442   0.59442   0.00000  Uiso   1.00
H328   H     0.09442   0.59442   0.59442   0.00000  Uiso   1.00
O329   O     0.50299   0.09386   0.32913   0.00000  Uiso   1.00
O330   O     0.00299   0.59386   0.32913   0.00000  Uiso   1.00
O331   O     0.00299   0.09386   0.82913   0.00000  Uiso   1.00
O332   O     0.50299   0.59386   0.82913   0.00000  Uiso   1.00
O333   O     0.99701   0.40614   0.32913   0.00000  Uiso   1.00
O334   O     0.49701   0.90614   0.32913   0.00000  Uiso   1.00
O335   O     0.49701   0.40614   0.82913   0.00000  Uiso   1.00
O336   O     0.99701   0.90614   0.82913   0.00000  Uiso   1.00
O337   O     0.99701   0.09386   0.17087   0.00000  Uiso   1.00
O338   O     0.49701   0.59386   0.17087   0.00000  Uiso   1.00
O339   O     0.49701   0.09386   0.67087   0.00000  Uiso   1.00
O340   O     0.99701   0.59386   0.67087   0.00000  Uiso   1.00
O341   O     0.50299   0.40614   0.17087   0.00000  Uiso   1.00
O342   O     0.00299   0.90614   0.17087   0.00000  Uiso   1.00
O343   O     0.00299   0.40614   0.67087   0.00000  Uiso   1.00
O344   O     0.50299   0.90614   0.67087   0.00000  Uiso   1.00
O345   O     0.82913   0.00299   0.09386   0.00000  Uiso   1.00
O346   O     0.32913   0.50299   0.09386   0.00000  Uiso   1.00
O347   O     0.32913   0.00299   0.59386   0.00000  Uiso   1.00
O348   O     0.82913   0.50299   0.59386   0.00000  Uiso   1.00
O349   O     0.82913   0.49701   0.40614   0.00000  Uiso   1.00
O350   O     0.32913   0.99701   0.40614   0.00000  Uiso   1.00
O351   O     0.32913   0.49701   0.90614   0.00000  Uiso   1.00
O352   O     0.82913   0.99701   0.90614   0.00000  Uiso   1.00
O353   O     0.67087   0.49701   0.09386   0.00000  Uiso   1.00
O354   O     0.17087   0.99701   0.09386   0.00000  Uiso   1.00
O355   O     0.17087   0.49701   0.59386   0.00000  Uiso   1.00
O356   O     0.67087   0.99701   0.59386   0.00000  Uiso   1.00
O357   O     0.67087   0.00299   0.40614   0.00000  Uiso   1.00
O358   O     0.17087   0.50299   0.40614   0.00000  Uiso   1.00
O359   O     0.17087   0.00299   0.90614   0.00000  Uiso   1.00
O360   O     0.67087   0.50299   0.90614   0.00000  Uiso   1.00
O361   O     0.59386   0.32913   0.00299   0.00000  Uiso   1.00
O362   O     0.09386   0.82913   0.00299   0.00000  Uiso   1.00
O363   O     0.09386   0.32913   0.50299   0.00000  Uiso   1.00
O364   O     0.59386   0.82913   0.50299   0.00000  Uiso   1.00
O365   O     0.90614   0.32913   0.49701   0.00000  Uiso   1.00
O366   O     0.40614   0.82913   0.49701   0.00000  Uiso   1.00
O367   O     0.40614   0.32913   0.99701   0.00000  Uiso   1.00
O368   O     0.90614   0.82913   0.99701   0.00000  Uiso   1.00
O369   O     0.59386   0.17087   0.49701   0.00000  Uiso   1.00
O370   O     0.09386   0.67087   0.49701   0.00000  Uiso   1.00
O371   O     0.09386   0.17087   0.99701   0.00000  Uiso   1.00
O372   O     0.59386   0.67087   0.99701   0.00000  Uiso   1.00
O373   O     0.90614   0.17087   0.00299   0.00000  Uiso   1.00
O374   O     0.40614   0.67087   0.00299   0.00000  Uiso   1.00
O375   O     0.40614   0.17087   0.50299   0.00000  Uiso   1.00
O376   O     0.90614   0.67087   0.50299   0.00000  Uiso   1.00
O377   O     0.59386   0.00299   0.32913   0.00000  Uiso   1.00
O378   O     0.09386   0.50299   0.32913   0.00000  Uiso   1.00
O379   O     0.09386   0.00299   0.82913   0.00000  Uiso   1.00
O380   O     0.59386   0.50299   0.82913   0.00000  Uiso   1.00
O381   O     0.90614   0.49701   0.32913   0.00000  Uiso   1.00
O382   O     0.40614   0.99701   0.32913   0.00000  Uiso   1.00
O383   O     0.40614   0.49701   0.82913   0.00000  Uiso   1.00
O384   O     0.90614   0.99701   0.82913   0.00000  Uiso   1.00
O385   O     0.59386   0.49701   0.17087   0.00000  Uiso   1.00
O386   O     0.09386   0.99701   0.17087   0.00000  Uiso   1.00
O387   O     0.09386   0.49701   0.67087   0.00000  Uiso   1.00
O388   O     0.59386   0.99701   0.67087   0.00000  Uiso   1.00
O389   O     0.90614   0.00299   0.17087   0.00000  Uiso   1.00
O390   O     0.40614   0.50299   0.17087   0.00000  Uiso   1.00
O391   O     0.40614   0.00299   0.67087   0.00000  Uiso   1.00
O392   O     0.90614   0.50299   0.67087   0.00000  Uiso   1.00
O393   O     0.50299   0.32913   0.09386   0.00000  Uiso   1.00
O394   O     0.00299   0.82913   0.09386   0.00000  Uiso   1.00
O395   O     0.00299   0.32913   0.59386   0.00000  Uiso   1.00
O396   O     0.50299   0.82913   0.59386   0.00000  Uiso   1.00
O397   O     0.99701   0.32913   0.40614   0.00000  Uiso   1.00
O398   O     0.49701   0.82913   0.40614   0.00000  Uiso   1.00
O399   O     0.49701   0.32913   0.90614   0.00000  Uiso   1.00
O400   O     0.99701   0.82913   0.90614   0.00000  Uiso   1.00
O401   O     0.99701   0.17087   0.09386   0.00000  Uiso   1.00
O402   O     0.49701   0.67087   0.09386   0.00000  Uiso   1.00
O403   O     0.49701   0.17087   0.59386   0.00000  Uiso   1.00
O404   O     0.99701   0.67087   0.59386   0.00000  Uiso   1.00
O405   O     0.50299   0.17087   0.40614   0.00000  Uiso   1.00
O406   O     0.00299   0.67087   0.40614   0.00000  Uiso   1.00
O407   O     0.00299   0.17087   0.90614   0.00000  Uiso   1.00
O408   O     0.50299   0.67087   0.90614   0.00000  Uiso   1.00
O409   O     0.82913   0.09386   0.00299   0.00000  Uiso   1.00
O410   O     0.32913   0.59386   0.00299   0.00000  Uiso   1.00
O411   O     0.32913   0.09386   0.50299   0.00000  Uiso   1.00
O412   O     0.82913   0.59386   0.50299   0.00000  Uiso   1.00
O413   O     0.82913   0.40614   0.49701   0.00000  Uiso   1.00
O414   O     0.32913   0.90614   0.49701   0.00000  Uiso   1.00
O415   O     0.32913   0.40614   0.99701   0.00000  Uiso   1.00
O416   O     0.82913   0.90614   0.99701   0.00000  Uiso   1.00
O417   O     0.67087   0.09386   0.49701   0.00000  Uiso   1.00
O418   O     0.17087   0.59386   0.49701   0.00000  Uiso   1.00
O419   O     0.17087   0.09386   0.99701   0.00000  Uiso   1.00
O420   O     0.67087   0.59386   0.99701   0.00000  Uiso   1.00
O421   O     0.67087   0.40614   0.00299   0.00000  Uiso   1.00
O422   O     0.17087   0.90614   0.00299   0.00000  Uiso   1.00
O423   O     0.17087   0.40614   0.50299   0.00000  Uiso   1.00
O424   O     0.67087   0.90614   0.50299   0.00000  Uiso   1.00
O425   O     0.06751   0.43249   0.43249   0.00000  Uiso   1.00
O426   O     0.56751   0.93249   0.43249   0.00000  Uiso   1.00
O427   O     0.56751   0.43249   0.93249   0.00000  Uiso   1.00
O428   O     0.06751   0.93249   0.93249   0.00000  Uiso   1.00
O429   O     0.43249   0.06751   0.43249   0.00000  Uiso   1.00
O430   O     0.93249   0.56751   0.43249   0.00000  Uiso   1.00
O431   O     0.93249   0.06751   0.93249   0.00000  Uiso   1.00
O432   O     0.43249   0.56751   0.93249   0.00000  Uiso   1.00
O433   O     0.43249   0.43249   0.06751   0.00000  Uiso   1.00
O434   O     0.93249   0.93249   0.06751   0.00000  Uiso   1.00
O435   O     0.93249   0.43249   0.56751   0.00000  Uiso   1.00
O436   O     0.43249   0.93249   0.56751   0.00000  Uiso   1.00
O437   O     0.06751   0.06751   0.06751   0.00000  Uiso   1.00
O438   O     0.56751   0.56751   0.06751   0.00000  Uiso   1.00
O439   O     0.56751   0.06751   0.56751   0.00000  Uiso   1.00
O440   O     0.06751   0.56751   0.56751   0.00000  Uiso   1.00
O441   O     0.95036   0.04964   0.04964   0.00000  Uiso   1.00
O442   O     0.45036   0.54964   0.04964   0.00000  Uiso   1.00
O443   O     0.45036   0.04964   0.54964   0.00000  Uiso   1.00
O444   O     0.95036   0.54964   0.54964   0.00000  Uiso   1.00
O445   O     0.54964   0.45035   0.04964   0.00000  Uiso   1.00
O446   O     0.04964   0.95035   0.04964   0.00000  Uiso   1.00
O447   O     0.04964   0.45035   0.54964   0.00000  Uiso   1.00
O448   O     0.54964   0.95035   0.54964   0.00000  Uiso   1.00
O449   O     0.54964   0.04964   0.45035   0.00000  Uiso   1.00
O450   O     0.04964   0.54964   0.45035   0.00000  Uiso   1.00
O451   O     0.04964   0.04964   0.95035   0.00000  Uiso   1.00
O452   O     0.54964   0.54964   0.95035   0.00000  Uiso   1.00
O453   O     0.95036   0.45035   0.45035   0.00000  Uiso   1.00
O454   O     0.45036   0.95035   0.45035   0.00000  Uiso   1.00
O455   O     0.45036   0.45035   0.95035   0.00000  Uiso   1.00
O456   O     0.95036   0.95035   0.95035   0.00000  Uiso   1.00
loop_
_geom_bond_atom_site_label_1
_geom_bond_atom_site_label_2
_geom_bond_distance
_geom_bond_site_symmetry_2
Zr1    O437    2.278   .    
Zr1    O359    2.224   1_554
Zr1    O419    2.224   1_554
Zr1    O428    2.278   1_544
Zr1    O354    2.224   1_545
Zr1    O422    2.224   1_545
Zr1    O446    2.081   1_545
Zr1    O451    2.081   1_554
Zr2    O353    2.224   .    
Zr2    O421    2.224   .    
Zr2    O438    2.278   .    
Zr2    O445    2.081   .    
Zr2    O360    2.224   1_554
Zr2    O420    2.224   1_554
Zr2    O427    2.278   1_554
Zr2    O452    2.081   1_554
Zr3    O357    2.224   .    
Zr3    O417    2.224   .    
Zr3    O439    2.278   .    
Zr3    O449    2.081   .    
Zr3    O426    2.278   1_545
Zr3    O356    2.224   1_545
Zr3    O424    2.224   1_545
Zr3    O448    2.081   1_545
Zr4    O358    2.224   .    
Zr4    O418    2.224   .    
Zr4    O425    2.278   .    
Zr4    O355    2.224   .    
Zr4    O423    2.224   .    
Zr4    O440    2.278   .    
Zr4    O447    2.081   .    
Zr4    O450    2.081   .    
Zr5    O409    2.224   .    
Zr5    O441    2.080   .    
Zr5    O345    2.224   .    
Zr5    O352    2.224   1_544
Zr5    O416    2.224   1_544
Zr5    O431    2.278   1_554
Zr5    O434    2.278   1_545
Zr5    O456    2.081   1_544
Zr6    O410    2.224   .    
Zr6    O442    2.080   .    
Zr6    O346    2.224   .    
Zr6    O433    2.278   .    
Zr6    O351    2.224   1_554
Zr6    O415    2.224   1_554
Zr6    O432    2.278   1_554
Zr6    O455    2.081   1_554
Zr7    O411    2.224   .    
Zr7    O443    2.080   .    
Zr7    O347    2.224   .    
Zr7    O429    2.278   .    
Zr7    O350    2.224   1_545
Zr7    O414    2.224   1_545
Zr7    O436    2.278   1_545
Zr7    O454    2.081   1_545
Zr8    O349    2.224   .    
Zr8    O412    2.224   .    
Zr8    O444    2.080   .    
Zr8    O348    2.224   .    
Zr8    O413    2.224   .    
Zr8    O430    2.278   .    
Zr8    O435    2.278   .    
Zr8    O453    2.081   .    
Zr9    O373    2.224   .    
Zr9    O401    2.224   .    
Zr9    O441    2.080   .    
Zr9    O407    2.224   1_654
Zr9    O431    2.278   1_554
Zr9    O371    2.224   1_654
Zr9    O437    2.278   1_655
Zr9    O451    2.081   1_654
Zr10   O374    2.224   .    
Zr10   O402    2.224   .    
Zr10   O438    2.278   .    
Zr10   O442    2.080   .    
Zr10   O408    2.224   1_554
Zr10   O432    2.278   1_554
Zr10   O372    2.224   1_554
Zr10   O452    2.081   1_554
Zr11   O405    2.224   .    
Zr11   O429    2.278   .    
Zr11   O369    2.224   .    
Zr11   O375    2.224   .    
Zr11   O403    2.224   .    
Zr11   O439    2.278   .    
Zr11   O443    2.080   .    
Zr11   O449    2.081   .    
Zr12   O430    2.278   .    
Zr12   O376    2.224   .    
Zr12   O404    2.224   .    
Zr12   O444    2.080   .    
Zr12   O406    2.224   1_655
Zr12   O370    2.224   1_655
Zr12   O440    2.278   1_655
Zr12   O450    2.081   1_655
Zr13   O445    2.080   .    
Zr13   O361    2.224   .    
Zr13   O393    2.224   .    
Zr13   O433    2.278   .    
Zr13   O399    2.224   1_554
Zr13   O367    2.224   1_554
Zr13   O427    2.278   1_554
Zr13   O455    2.080   1_554
Zr14   O434    2.278   .    
Zr14   O446    2.080   1_655
Zr14   O400    2.224   1_554
Zr14   O362    2.224   1_655
Zr14   O394    2.224   1_655
Zr14   O368    2.224   1_554
Zr14   O428    2.278   1_654
Zr14   O456    2.080   1_554
Zr15   O397    2.224   .    
Zr15   O365    2.224   .    
Zr15   O435    2.278   .    
Zr15   O453    2.080   .    
Zr15   O447    2.080   1_655
Zr15   O363    2.224   1_655
Zr15   O395    2.224   1_655
Zr15   O425    2.278   1_655
Zr16   O448    2.080   .    
Zr16   O398    2.224   .    
Zr16   O364    2.224   .    
Zr16   O396    2.224   .    
Zr16   O366    2.224   .    
Zr16   O426    2.278   .    
Zr16   O436    2.278   .    
Zr16   O454    2.080   .    
Zr17   O337    2.224   .    
Zr17   O389    2.224   .    
Zr17   O441    2.080   .    
Zr17   O386    2.224   1_645
Zr17   O342    2.224   1_645
Zr17   O434    2.278   1_545
Zr17   O437    2.278   1_655
Zr17   O446    2.081   1_645
Zr18   O338    2.224   .    
Zr18   O385    2.224   .    
Zr18   O341    2.224   .    
Zr18   O433    2.278   .    
Zr18   O390    2.224   .    
Zr18   O438    2.278   .    
Zr18   O442    2.080   .    
Zr18   O445    2.081   .    
Zr19   O339    2.224   .    
Zr19   O391    2.224   .    
Zr19   O439    2.278   .    
Zr19   O443    2.080   .    
Zr19   O388    2.224   1_545
Zr19   O344    2.224   1_545
Zr19   O436    2.278   1_545
Zr19   O448    2.081   1_545
Zr20   O340    2.224   .    
Zr20   O435    2.278   .    
Zr20   O392    2.224   .    
Zr20   O444    2.080   .    
Zr20   O387    2.224   1_655
Zr20   O343    2.224   1_655
Zr20   O440    2.278   1_655
Zr20   O447    2.081   1_655
Zr21   O329    2.224   .    
Zr21   O377    2.224   .    
Zr21   O449    2.080   .    
Zr21   O429    2.278   .    
Zr21   O382    2.224   1_545
Zr21   O334    2.224   1_545
Zr21   O426    2.278   1_545
Zr21   O454    2.080   1_545
Zr22   O381    2.224   .    
Zr22   O333    2.224   .    
Zr22   O430    2.278   .    
Zr22   O453    2.080   .    
Zr22   O330    2.224   1_655
Zr22   O378    2.224   1_655
Zr22   O450    2.080   1_655
Zr22   O425    2.278   1_655
Zr23   O431    2.278   .    
Zr23   O331    2.224   1_655
Zr23   O379    2.224   1_655
Zr23   O384    2.224   1_545
Zr23   O451    2.080   1_655
Zr23   O336    2.224   1_545
Zr23   O428    2.278   1_645
Zr23   O456    2.080   1_545
Zr24   O332    2.224   .    
Zr24   O380    2.224   .    
Zr24   O383    2.224   .    
Zr24   O452    2.080   .    
Zr24   O335    2.224   .    
Zr24   O427    2.278   .    
Zr24   O432    2.278   .    
Zr24   O455    2.080   .    
C25    H217    1.090   .    
C25    C77     1.389   .    
C25    C121    1.402   .    
C26    H218    1.090   .    
C26    C78     1.389   .    
C26    C122    1.402   .    
C27    H219    1.090   .    
C27    C79     1.389   .    
C27    C123    1.402   .    
C28    H220    1.090   .    
C28    C80     1.389   .    
C28    C124    1.402   .    
C29    H221    1.090   .    
C29    C73     1.389   .    
C29    C125    1.402   .    
C30    H222    1.090   .    
C30    C74     1.389   .    
C30    C126    1.402   .    
C31    H223    1.090   .    
C31    C75     1.389   .    
C31    C127    1.402   .    
C32    H224    1.090   .    
C32    C76     1.389   .    
C32    C128    1.402   .    
C33    C81     1.389   .    
C33    C129    1.402   .    
C33    H225    1.090   .    
C34    C82     1.389   .    
C34    C130    1.402   .    
C34    H226    1.090   .    
C35    C83     1.389   .    
C35    C131    1.402   .    
C35    H227    1.090   .    
C36    C84     1.389   .    
C36    C132    1.402   .    
C36    H228    1.090   .    
C37    H229    1.091   .    
C37    C85     1.389   .    
C37    C133    1.402   .    
C38    H230    1.091   .    
C38    C86     1.389   .    
C38    C134    1.402   .    
C39    H231    1.091   .    
C39    C87     1.389   .    
C39    C135    1.402   .    
C40    H232    1.091   .    
C40    C88     1.389   .    
C40    C136    1.402   .    
C41    C109    1.389   .    
C41    H233    1.090   .    
C41    C137    1.402   .    
C42    C110    1.389   .    
C42    H234    1.090   .    
C42    C138    1.402   .    
C43    C111    1.389   .    
C43    H235    1.090   .    
C43    C139    1.402   .    
C44    C112    1.389   .    
C44    H236    1.090   .    
C44    C140    1.402   .    
C45    C105    1.389   .    
C45    H237    1.090   .    
C45    C141    1.402   .    
C46    C106    1.389   .    
C46    H238    1.090   .    
C46    C142    1.402   .    
C47    C107    1.389   .    
C47    H239    1.090   .    
C47    C143    1.402   .    
C48    C108    1.389   .    
C48    H240    1.090   .    
C48    C144    1.402   .    
C49    C145    1.402   .    
C49    H241    1.090   .    
C49    C113    1.389   .    
C50    C146    1.402   .    
C50    H242    1.090   .    
C50    C114    1.389   .    
C51    C147    1.402   .    
C51    H243    1.090   .    
C51    C115    1.389   .    
C52    C148    1.402   .    
C52    H244    1.090   .    
C52    C116    1.389   .    
C53    H245    1.091   .    
C53    C117    1.389   .    
C53    C149    1.402   .    
C54    H246    1.091   .    
C54    C118    1.389   .    
C54    C150    1.402   .    
C55    H247    1.091   .    
C55    C119    1.389   .    
C55    C151    1.402   .    
C56    H248    1.091   .    
C56    C120    1.389   .    
C56    C152    1.402   .    
C57    C93     1.389   .    
C57    H249    1.090   .    
C57    C153    1.402   .    
C58    C94     1.389   .    
C58    H250    1.090   .    
C58    C154    1.402   .    
C59    C95     1.389   .    
C59    H251    1.090   .    
C59    C155    1.402   .    
C60    C96     1.389   .    
C60    H252    1.090   .    
C60    C156    1.402   .    
C61    H253    1.090   .    
C61    C89     1.389   .    
C61    C157    1.402   .    
C62    H254    1.090   .    
C62    C90     1.389   .    
C62    C158    1.402   .    
C63    H255    1.090   .    
C63    C91     1.389   .    
C63    C159    1.402   .    
C64    H256    1.090   .    
C64    C92     1.389   .    
C64    C160    1.402   .    
C65    C161    1.402   .    
C65    H257    1.090   .    
C65    C97     1.389   .    
C66    C162    1.402   .    
C66    H258    1.090   .    
C66    C98     1.389   .    
C67    C163    1.402   .    
C67    H259    1.090   .    
C67    C99     1.389   .    
C68    C164    1.402   .    
C68    H260    1.090   .    
C68    C100    1.389   .    
C69    H261    1.090   .    
C69    C101    1.389   .    
C69    C165    1.402   .    
C70    H262    1.090   .    
C70    C102    1.389   .    
C70    C166    1.402   .    
C71    H263    1.090   .    
C71    C103    1.389   .    
C71    C167    1.402   .    
C72    H264    1.090   .    
C72    C104    1.389   .    
C72    C168    1.402   .    
C73    H265    1.090   .    
C73    C121    1.402   .    
C74    H266    1.090   .    
C74    C122    1.402   .    
C75    H267    1.090   .    
C75    C123    1.402   .    
C76    H268    1.090   .    
C76    C124    1.402   .    
C77    H269    1.090   .    
C77    C125    1.402   .    
C78    H270    1.090   .    
C78    C126    1.402   .    
C79    H271    1.090   .    
C79    C127    1.402   .    
C80    H272    1.090   .    
C80    C128    1.402   .    
C81    C133    1.402   .    
C81    H273    1.090   .    
C82    C134    1.402   .    
C82    H274    1.090   .    
C83    C135    1.402   .    
C83    H275    1.090   .    
C84    C136    1.402   .    
C84    H276    1.090   .    
C85    H277    1.091   .    
C85    C129    1.402   .    
C86    H278    1.091   .    
C86    C130    1.402   .    
C87    H279    1.091   .    
C87    C131    1.402   .    
C88    H280    1.091   .    
C88    C132    1.402   .    
C89    H281    1.090   .    
C89    C153    1.402   .    
C90    H282    1.090   .    
C90    C154    1.402   .    
C91    H283    1.090   .    
C91    C155    1.402   .    
C92    H284    1.090   .    
C92    C156    1.402   .    
C93    H285    1.090   .    
C93    C157    1.402   .    
C94    H286    1.090   .    
C94    C158    1.402   .    
C95    H287    1.090   .    
C95    C159    1.402   .    
C96    H288    1.090   .    
C96    C160    1.402   .    
C97    C165    1.402   .    
C97    H289    1.090   .    
C98    C166    1.402   .    
C98    H290    1.090   .    
C99    C167    1.402   .    
C99    H291    1.090   .    
C100   C168    1.402   .    
C100   H292    1.090   .    
C101   H293    1.091   .    
C101   C161    1.402   .    
C102   H294    1.091   .    
C102   C162    1.402   .    
C103   H295    1.091   .    
C103   C163    1.402   .    
C104   H296    1.091   .    
C104   C164    1.402   .    
C105   H297    1.090   .    
C105   C137    1.402   .    
C106   H298    1.090   .    
C106   C138    1.402   .    
C107   H299    1.090   .    
C107   C139    1.402   .    
C108   H300    1.090   .    
C108   C140    1.402   .    
C109   H301    1.090   .    
C109   C141    1.402   .    
C110   H302    1.090   .    
C110   C142    1.402   .    
C111   H303    1.090   .    
C111   C143    1.402   .    
C112   H304    1.090   .    
C112   C144    1.402   .    
C113   C149    1.402   .    
C113   H305    1.090   .    
C114   C150    1.402   .    
C114   H306    1.090   .    
C115   C151    1.402   .    
C115   H307    1.090   .    
C116   C152    1.402   .    
C116   H308    1.090   .    
C117   H309    1.090   .    
C117   C145    1.402   .    
C118   H310    1.090   .    
C118   C146    1.402   .    
C119   H311    1.090   .    
C119   C147    1.402   .    
C120   H312    1.090   .    
C120   C148    1.402   .    
C121   C209    1.491   .    
C122   C210    1.491   .    
C123   C211    1.491   .    
C124   C212    1.491   .    
C125   C205    1.491   .    
C126   C206    1.491   .    
C127   C207    1.491   .    
C128   C208    1.491   .    
C129   C213    1.491   .    
C130   C214    1.491   .    
C131   C215    1.491   .    
C132   C216    1.491   .    
C133   C201    1.491   .    
C134   C202    1.491   .    
C135   C203    1.491   .    
C136   C204    1.491   .    
C137   C177    1.491   .    
C138   C178    1.491   .    
C139   C179    1.491   .    
C140   C180    1.491   .    
C141   C173    1.491   .    
C142   C174    1.491   .    
C143   C175    1.491   .    
C144   C176    1.491   .    
C145   C181    1.491   .    
C146   C182    1.491   .    
C147   C183    1.491   .    
C148   C184    1.491   .    
C149   C169    1.491   .    
C150   C170    1.491   .    
C151   C171    1.491   .    
C152   C172    1.491   .    
C153   C193    1.491   .    
C154   C194    1.491   .    
C155   C195    1.491   .    
C156   C196    1.491   .    
C157   C189    1.491   .    
C158   C190    1.491   .    
C159   C191    1.491   .    
C160   C192    1.491   .    
C161   C197    1.491   .    
C162   C198    1.491   .    
C163   C199    1.491   .    
C164   C200    1.491   .    
C165   C185    1.491   .    
C166   C186    1.491   .    
C167   C187    1.491   .    
C168   C188    1.491   .    
C169   O329    1.280   .    
C169   O405    1.280   .    
C170   O330    1.280   .    
C170   O406    1.280   .    
C171   O331    1.280   .    
C171   O407    1.280   .    
C172   O332    1.280   .    
C172   O408    1.280   .    
C173   O333    1.280   .    
C173   O397    1.280   .    
C174   O334    1.280   .    
C174   O398    1.280   .    
C175   O335    1.280   .    
C175   O399    1.280   .    
C176   O336    1.280   .    
C176   O400    1.280   .    
C177   O337    1.280   .    
C177   O401    1.280   .    
C178   O338    1.280   .    
C178   O402    1.280   .    
C179   O339    1.280   .    
C179   O403    1.280   .    
C180   O340    1.280   .    
C180   O404    1.280   .    
C181   O393    1.280   .    
C181   O341    1.280   .    
C182   O394    1.280   .    
C182   O342    1.280   .    
C183   O395    1.280   .    
C183   O343    1.280   .    
C184   O396    1.280   .    
C184   O344    1.280   .    
C185   O345    1.280   .    
C185   O389    1.280   .    
C186   O346    1.280   .    
C186   O390    1.280   .    
C187   O347    1.280   .    
C187   O391    1.280   .    
C188   O348    1.280   .    
C188   O392    1.280   .    
C189   O349    1.280   .    
C189   O381    1.280   .    
C190   O350    1.280   .    
C190   O382    1.280   .    
C191   O351    1.280   .    
C191   O383    1.280   .    
C192   O352    1.280   .    
C192   O384    1.280   .    
C193   O353    1.280   .    
C193   O385    1.280   .    
C194   O354    1.280   .    
C194   O386    1.280   .    
C195   O355    1.280   .    
C195   O387    1.280   .    
C196   O356    1.280   .    
C196   O388    1.280   .    
C197   O377    1.280   .    
C197   O357    1.280   .    
C198   O378    1.280   .    
C198   O358    1.280   .    
C199   O379    1.280   .    
C199   O359    1.280   .    
C200   O380    1.280   .    
C200   O360    1.280   .    
C201   O361    1.280   .    
C201   O421    1.280   .    
C202   O362    1.280   .    
C202   O422    1.280   .    
C203   O363    1.280   .    
C203   O423    1.280   .    
C204   O364    1.280   .    
C204   O424    1.280   .    
C205   O365    1.280   .    
C205   O413    1.280   .    
C206   O366    1.280   .    
C206   O414    1.280   .    
C207   O367    1.280   .    
C207   O415    1.280   .    
C208   O368    1.280   .    
C208   O416    1.280   .    
C209   O369    1.280   .    
C209   O417    1.280   .    
C210   O370    1.280   .    
C210   O418    1.280   .    
C211   O371    1.280   .    
C211   O419    1.280   .    
C212   O372    1.280   .    
C212   O420    1.280   .    
C213   O409    1.280   .    
C213   O373    1.280   .    
C214   O410    1.280   .    
C214   O374    1.280   .    
C215   O411    1.280   .    
C215   O375    1.280   .    
C216   O412    1.280   .    
C216   O376    1.280   .    
H313   O425    0.972   .    
H314   O426    0.972   .    
H315   O427    0.972   .    
H316   O428    0.972   .    
H317   O429    0.972   .    
H318   O430    0.972   .    
H319   O431    0.972   .    
H320   O432    0.972   .    
H321   O433    0.972   .    
H322   O434    0.972   .    
H323   O435    0.972   .    
H324   O436    0.972   .    
H325   O437    0.973   .    
H326   O438    0.973   .    
H327   O439    0.973   .    
H328   O440    0.973   .    
O330   Zr22    2.224   1_455
O331   Zr23    2.224   1_455
O334   Zr21    2.224   1_565
O336   Zr23    2.224   1_565
O342   Zr17    2.224   1_465
O343   Zr20    2.224   1_455
O344   Zr19    2.224   1_565
O350   Zr7     2.224   1_565
O351   Zr6     2.224   1_556
O352   Zr5     2.224   1_566
O354   Zr1     2.224   1_565
O356   Zr3     2.224   1_565
O359   Zr1     2.224   1_556
O360   Zr2     2.224   1_556
O362   Zr14    2.224   1_455
O363   Zr15    2.224   1_455
O367   Zr13    2.224   1_556
O368   Zr14    2.224   1_556
O370   Zr12    2.224   1_455
O371   Zr9     2.224   1_456
O372   Zr10    2.224   1_556
O378   Zr22    2.224   1_455
O379   Zr23    2.224   1_455
O382   Zr21    2.224   1_565
O384   Zr23    2.224   1_565
O386   Zr17    2.224   1_465
O387   Zr20    2.224   1_455
O388   Zr19    2.224   1_565
O394   Zr14    2.224   1_455
O395   Zr15    2.224   1_455
O399   Zr13    2.224   1_556
O400   Zr14    2.224   1_556
O406   Zr12    2.224   1_455
O407   Zr9     2.224   1_456
O408   Zr10    2.224   1_556
O414   Zr7     2.224   1_565
O415   Zr6     2.224   1_556
O416   Zr5     2.224   1_566
O419   Zr1     2.224   1_556
O420   Zr2     2.224   1_556
O422   Zr1     2.224   1_565
O424   Zr3     2.224   1_565
O425   Zr15    2.278   1_455
O425   Zr22    2.278   1_455
O426   Zr3     2.278   1_565
O426   Zr21    2.278   1_565
O427   Zr2     2.278   1_556
O427   Zr13    2.278   1_556
O428   Zr1     2.278   1_566
O428   Zr14    2.278   1_456
O428   Zr23    2.278   1_465
O431   Zr5     2.278   1_556
O431   Zr9     2.278   1_556
O432   Zr6     2.278   1_556
O432   Zr10    2.278   1_556
O434   Zr5     2.278   1_565
O434   Zr17    2.278   1_565
O436   Zr7     2.278   1_565
O436   Zr19    2.278   1_565
O437   Zr9     2.278   1_455
O437   Zr17    2.278   1_455
O440   Zr12    2.278   1_455
O440   Zr20    2.278   1_455
O446   Zr1     2.081   1_565
O446   Zr14    2.080   1_455
O446   Zr17    2.081   1_465
O447   Zr15    2.080   1_455
O447   Zr20    2.081   1_455
O448   Zr3     2.081   1_565
O448   Zr19    2.081   1_565
O450   Zr12    2.081   1_455
O450   Zr22    2.080   1_455
O451   Zr1     2.081   1_556
O451   Zr9     2.081   1_456
O451   Zr23    2.080   1_455
O452   Zr2     2.081   1_556
O452   Zr10    2.081   1_556
O454   Zr7     2.081   1_565
O454   Zr21    2.080   1_565
O455   Zr6     2.081   1_556
O455   Zr13    2.080   1_556
O456   Zr5     2.081   1_566
O456   Zr14    2.080   1_556
O456   Zr23    2.080   1_565
